# generated using pymatgen
data_Ti96Nb
_symmetry_space_group_name_H-M   'P 1'
_cell_length_a   9.51302000
_cell_length_b   9.35086000
_cell_length_c   18.54723000
_cell_angle_alpha   90.00000000
_cell_angle_beta   90.00000000
_cell_angle_gamma   90.00000000
_symmetry_Int_Tables_number   1
_chemical_formula_structural   Ti96Nb
_chemical_formula_sum   'Ti96 Nb1'
_cell_volume   1649.86732743
_cell_formula_units_Z   1
loop_
 _symmetry_equiv_pos_site_id
 _symmetry_equiv_pos_as_xyz
  1  'x, y, z'
loop_
 _atom_site_type_symbol
 _atom_site_label
 _atom_site_symmetry_multiplicity
 _atom_site_fract_x
 _atom_site_fract_y
 _atom_site_fract_z
 _atom_site_occupancy
  Ti  Ti0  1  0.152438  0.380421  0.402224  1
  Ti  Ti1  1  0.642012  0.330987  0.408918  1
  Ti  Ti2  1  0.124017  0.850191  0.422897  1
  Ti  Ti3  1  0.656353  0.866312  0.413322  1
  Ti  Ti4  1  0.153439  0.369863  0.241673  1
  Ti  Ti5  1  0.657163  0.359593  0.235186  1
  Ti  Ti6  1  0.152907  0.866604  0.229861  1
  Ti  Ti7  1  0.674054  0.883947  0.230651  1
  Ti  Ti8  1  0.166666  0.375000  0.077689  1
  Ti  Ti9  1  0.666666  0.375000  0.077689  1
  Ti  Ti10  1  0.166666  0.875000  0.077689  1
  Ti  Ti11  1  0.666666  0.875000  0.077689  1
  Ti  Ti12  1  0.418370  0.402347  0.322936  1
  Ti  Ti13  1  0.901656  0.373587  0.323255  1
  Ti  Ti14  1  0.320427  0.933839  0.332936  1
  Ti  Ti15  1  0.908862  0.876081  0.320364  1
  Ti  Ti16  1  0.416667  0.375000  0.155379  1
  Ti  Ti17  1  0.916667  0.375000  0.155379  1
  Ti  Ti18  1  0.416667  0.875000  0.155379  1
  Ti  Ti19  1  0.916667  0.875000  0.155379  1
  Ti  Ti20  1  0.416667  0.375000  0.000000  1
  Ti  Ti21  1  0.916667  0.375000  0.000000  1
  Ti  Ti22  1  0.416667  0.875000  0.000000  1
  Ti  Ti23  1  0.916667  0.875000  0.000000  1
  Ti  Ti24  1  0.098344  0.126413  0.323254  1
  Ti  Ti25  1  0.581630  0.097653  0.322935  1
  Ti  Ti26  1  0.091138  0.623919  0.320363  1
  Ti  Ti27  1  0.679573  0.566161  0.332935  1
  Ti  Ti28  1  0.083333  0.125000  0.155379  1
  Ti  Ti29  1  0.583333  0.125000  0.155379  1
  Ti  Ti30  1  0.083333  0.625000  0.155379  1
  Ti  Ti31  1  0.583333  0.625000  0.155379  1
  Ti  Ti32  1  0.083333  0.125000  0.000000  1
  Ti  Ti33  1  0.583333  0.125000  0.000000  1
  Ti  Ti34  1  0.083333  0.625000  0.000000  1
  Ti  Ti35  1  0.583333  0.625000  0.000000  1
  Ti  Ti36  1  0.357987  0.169013  0.408918  1
  Ti  Ti37  1  0.847561  0.119579  0.402224  1
  Ti  Ti38  1  0.343646  0.633688  0.413322  1
  Ti  Ti39  1  0.875982  0.649809  0.422897  1
  Ti  Ti40  1  0.342836  0.140407  0.235186  1
  Ti  Ti41  1  0.846560  0.130137  0.241673  1
  Ti  Ti42  1  0.325945  0.616053  0.230651  1
  Ti  Ti43  1  0.847092  0.633396  0.229861  1
  Ti  Ti44  1  0.333333  0.125000  0.077689  1
  Ti  Ti45  1  0.833333  0.125000  0.077689  1
  Ti  Ti46  1  0.333333  0.625000  0.077689  1
  Ti  Ti47  1  0.833333  0.625000  0.077689  1
  Ti  Ti48  1  0.375000  0.375000  0.823738  1
  Ti  Ti49  1  0.875000  0.375000  0.823738  1
  Ti  Ti50  1  0.375000  0.875000  0.823738  1
  Ti  Ti51  1  0.875000  0.875000  0.823738  1
  Ti  Ti52  1  0.125000  0.125000  0.823738  1
  Ti  Ti53  1  0.625000  0.125000  0.823738  1
  Ti  Ti54  1  0.125000  0.625000  0.823738  1
  Ti  Ti55  1  0.625000  0.625000  0.823738  1
  Ti  Ti56  1  0.125000  0.375000  0.910084  1
  Ti  Ti57  1  0.625000  0.375000  0.910084  1
  Ti  Ti58  1  0.125000  0.875000  0.910084  1
  Ti  Ti59  1  0.625000  0.875000  0.910084  1
  Ti  Ti60  1  0.375000  0.125000  0.910084  1
  Ti  Ti61  1  0.875000  0.125000  0.910084  1
  Ti  Ti62  1  0.375000  0.625000  0.910084  1
  Ti  Ti63  1  0.875000  0.625000  0.910084  1
  Ti  Ti64  1  0.395613  0.383051  0.653973  1
  Ti  Ti65  1  0.900657  0.388011  0.653984  1
  Ti  Ti66  1  0.397708  0.883022  0.655134  1
  Ti  Ti67  1  0.890130  0.887675  0.654564  1
  Ti  Ti68  1  0.099343  0.111989  0.653984  1
  Ti  Ti69  1  0.604387  0.116949  0.653973  1
  Ti  Ti70  1  0.109870  0.612325  0.654564  1
  Ti  Ti71  1  0.602292  0.616978  0.655134  1
  Ti  Ti72  1  0.149160  0.354329  0.576302  1
  Ti  Ti73  1  0.652240  0.370533  0.576831  1
  Ti  Ti74  1  0.149626  0.864836  0.576107  1
  Ti  Ti75  1  0.641406  0.859753  0.570934  1
  Ti  Ti76  1  0.347760  0.129467  0.576831  1
  Ti  Ti77  1  0.850840  0.145671  0.576302  1
  Ti  Ti78  1  0.358594  0.640247  0.570934  1
  Ti  Ti79  1  0.850374  0.635164  0.576107  1
  Ti  Ti80  1  0.400044  0.385707  0.498927  1
  Ti  Ti81  1  0.893848  0.377287  0.483025  1
  Ti  Ti82  1  0.396128  0.896973  0.479376  1
  Ti  Ti83  1  0.898688  0.899752  0.503864  1
  Ti  Ti84  1  0.106152  0.122713  0.483025  1
  Ti  Ti85  1  0.599956  0.114293  0.498927  1
  Ti  Ti86  1  0.101312  0.600248  0.503864  1
  Ti  Ti87  1  0.603872  0.603027  0.479376  1
  Ti  Ti88  1  0.125000  0.875000  0.737395  1
  Ti  Ti89  1  0.625000  0.875000  0.737395  1
  Ti  Ti90  1  0.375000  0.625000  0.737395  1
  Ti  Ti91  1  0.875000  0.625000  0.737395  1
  Ti  Ti92  1  0.125000  0.375000  0.737395  1
  Ti  Ti93  1  0.625000  0.375000  0.737395  1
  Ti  Ti94  1  0.375000  0.125000  0.737395  1
  Ti  Ti95  1  0.875000  0.125000  0.737395  1
  Nb  Nb96  1  0.500000  0.750000  0.310963  1
