# generated using pymatgen
data_Ti
_symmetry_space_group_name_H-M   'P 1'
_cell_length_a   9.51302000
_cell_length_b   9.35086000
_cell_length_c   18.54723000
_cell_angle_alpha   90.00000000
_cell_angle_beta   90.00000000
_cell_angle_gamma   90.00000000
_symmetry_Int_Tables_number   1
_chemical_formula_structural   Ti
_chemical_formula_sum   Ti97
_cell_volume   1649.86732743
_cell_formula_units_Z   97
loop_
 _symmetry_equiv_pos_site_id
 _symmetry_equiv_pos_as_xyz
  1  'x, y, z'
loop_
 _atom_site_type_symbol
 _atom_site_label
 _atom_site_symmetry_multiplicity
 _atom_site_fract_x
 _atom_site_fract_y
 _atom_site_fract_z
 _atom_site_occupancy
  Ti  Ti0  1  0.149627  0.374900  0.405310  1
  Ti  Ti1  1  0.647453  0.342943  0.401186  1
  Ti  Ti2  1  0.137196  0.858541  0.393380  1
  Ti  Ti3  1  0.664441  0.869234  0.396707  1
  Ti  Ti4  1  0.161331  0.371141  0.234720  1
  Ti  Ti5  1  0.660135  0.375470  0.234553  1
  Ti  Ti6  1  0.162530  0.873860  0.235828  1
  Ti  Ti7  1  0.656003  0.870486  0.236306  1
  Ti  Ti8  1  0.166666  0.375025  0.077650  1
  Ti  Ti9  1  0.666673  0.375010  0.077632  1
  Ti  Ti10  1  0.166666  0.874990  0.077647  1
  Ti  Ti11  1  0.666676  0.874983  0.077641  1
  Ti  Ti12  1  0.405959  0.381051  0.314456  1
  Ti  Ti13  1  0.901166  0.373447  0.320451  1
  Ti  Ti14  1  0.404440  0.889128  0.326648  1
  Ti  Ti15  1  0.909850  0.883702  0.311392  1
  Ti  Ti16  1  0.416664  0.375006  0.155311  1
  Ti  Ti17  1  0.916680  0.374985  0.155310  1
  Ti  Ti18  1  0.416673  0.874985  0.155337  1
  Ti  Ti19  1  0.916674  0.874993  0.155331  1
  Ti  Ti20  1  0.416665  0.375028  -0.000026  1
  Ti  Ti21  1  0.916648  0.375016  -0.000017  1
  Ti  Ti22  1  0.416669  0.874985  -0.000041  1
  Ti  Ti23  1  0.916649  0.874988  -0.000029  1
  Ti  Ti24  1  0.098834  0.126553  0.320450  1
  Ti  Ti25  1  0.594041  0.118949  0.314455  1
  Ti  Ti26  1  0.090150  0.616298  0.311391  1
  Ti  Ti27  1  0.595560  0.610872  0.326647  1
  Ti  Ti28  1  0.083321  0.125018  0.155310  1
  Ti  Ti29  1  0.583336  0.124998  0.155312  1
  Ti  Ti30  1  0.083326  0.625011  0.155331  1
  Ti  Ti31  1  0.583327  0.625018  0.155337  1
  Ti  Ti32  1  0.083353  0.124988  -0.000017  1
  Ti  Ti33  1  0.583335  0.124977  -0.000025  1
  Ti  Ti34  1  0.083351  0.625019  -0.000028  1
  Ti  Ti35  1  0.583331  0.625023  -0.000041  1
  Ti  Ti36  1  0.352546  0.157057  0.401186  1
  Ti  Ti37  1  0.850372  0.125100  0.405310  1
  Ti  Ti38  1  0.335558  0.630766  0.396707  1
  Ti  Ti39  1  0.862803  0.641459  0.393380  1
  Ti  Ti40  1  0.339864  0.124531  0.234553  1
  Ti  Ti41  1  0.838668  0.128860  0.234720  1
  Ti  Ti42  1  0.343996  0.629515  0.236306  1
  Ti  Ti43  1  0.837469  0.626140  0.235827  1
  Ti  Ti44  1  0.333327  0.124995  0.077633  1
  Ti  Ti45  1  0.833333  0.124979  0.077651  1
  Ti  Ti46  1  0.333323  0.625023  0.077641  1
  Ti  Ti47  1  0.833333  0.625016  0.077647  1
  Ti  Ti48  1  0.374999  0.375010  0.823843  1
  Ti  Ti49  1  0.874978  0.374970  0.823834  1
  Ti  Ti50  1  0.375015  0.874968  0.823777  1
  Ti  Ti51  1  0.875035  0.874979  0.823773  1
  Ti  Ti52  1  0.125026  0.125028  0.823834  1
  Ti  Ti53  1  0.625004  0.124989  0.823843  1
  Ti  Ti54  1  0.124966  0.625022  0.823774  1
  Ti  Ti55  1  0.624987  0.625028  0.823778  1
  Ti  Ti56  1  0.124989  0.375019  0.910124  1
  Ti  Ti57  1  0.625006  0.375003  0.910124  1
  Ti  Ti58  1  0.125004  0.874978  0.910097  1
  Ti  Ti59  1  0.625007  0.874978  0.910096  1
  Ti  Ti60  1  0.374996  0.124996  0.910124  1
  Ti  Ti61  1  0.875015  0.124981  0.910123  1
  Ti  Ti62  1  0.374995  0.625022  0.910096  1
  Ti  Ti63  1  0.874999  0.625022  0.910096  1
  Ti  Ti64  1  0.389868  0.380219  0.662735  1
  Ti  Ti65  1  0.889048  0.376131  0.647148  1
  Ti  Ti66  1  0.387803  0.892792  0.649111  1
  Ti  Ti67  1  0.889494  0.883727  0.664798  1
  Ti  Ti68  1  0.110952  0.123868  0.647148  1
  Ti  Ti69  1  0.610131  0.119779  0.662735  1
  Ti  Ti70  1  0.110505  0.616271  0.664798  1
  Ti  Ti71  1  0.612196  0.607205  0.649111  1
  Ti  Ti72  1  0.147135  0.373038  0.568620  1
  Ti  Ti73  1  0.636979  0.343641  0.572584  1
  Ti  Ti74  1  0.133014  0.857302  0.579811  1
  Ti  Ti75  1  0.664553  0.884275  0.579214  1
  Ti  Ti76  1  0.363021  0.156358  0.572584  1
  Ti  Ti77  1  0.852865  0.126962  0.568620  1
  Ti  Ti78  1  0.335447  0.615725  0.579214  1
  Ti  Ti79  1  0.866986  0.642697  0.579811  1
  Ti  Ti80  1  0.409020  0.404595  0.485343  1
  Ti  Ti81  1  0.895990  0.377027  0.487628  1
  Ti  Ti82  1  0.335386  0.926990  0.484346  1
  Ti  Ti83  1  0.907170  0.880499  0.486723  1
  Ti  Ti84  1  0.104010  0.122973  0.487628  1
  Ti  Ti85  1  0.590980  0.095404  0.485343  1
  Ti  Ti86  1  0.092830  0.619501  0.486723  1
  Ti  Ti87  1  0.664614  0.573009  0.484346  1
  Ti  Ti88  1  0.125235  0.874979  0.737553  1
  Ti  Ti89  1  0.625156  0.875011  0.737578  1
  Ti  Ti90  1  0.374838  0.624978  0.737579  1
  Ti  Ti91  1  0.874761  0.625012  0.737555  1
  Ti  Ti92  1  0.124894  0.374872  0.737588  1
  Ti  Ti93  1  0.625039  0.374832  0.737623  1
  Ti  Ti94  1  0.374955  0.125154  0.737621  1
  Ti  Ti95  1  0.875102  0.125117  0.737586  1
  Ti  Ti96  1  0.500000  0.750000  0.505306  1
