# generated using pymatgen
data_Ti
_symmetry_space_group_name_H-M   'P 1'
_cell_length_a   9.51302000
_cell_length_b   9.35086000
_cell_length_c   18.54723000
_cell_angle_alpha   90.00000000
_cell_angle_beta   90.00000000
_cell_angle_gamma   90.00000000
_symmetry_Int_Tables_number   1
_chemical_formula_structural   Ti
_chemical_formula_sum   Ti97
_cell_volume   1649.86732743
_cell_formula_units_Z   97
loop_
 _symmetry_equiv_pos_site_id
 _symmetry_equiv_pos_as_xyz
  1  'x, y, z'
loop_
 _atom_site_type_symbol
 _atom_site_label
 _atom_site_symmetry_multiplicity
 _atom_site_fract_x
 _atom_site_fract_y
 _atom_site_fract_z
 _atom_site_occupancy
  Ti  Ti0  1  0.150129  0.374931  0.403712  1
  Ti  Ti1  1  0.653577  0.348925  0.396772  1
  Ti  Ti2  1  0.141985  0.862123  0.395605  1
  Ti  Ti3  1  0.661521  0.865910  0.401945  1
  Ti  Ti4  1  0.161725  0.371016  0.235460  1
  Ti  Ti5  1  0.659370  0.374766  0.234670  1
  Ti  Ti6  1  0.162117  0.873859  0.235782  1
  Ti  Ti7  1  0.658046  0.871511  0.235818  1
  Ti  Ti8  1  0.166658  0.375027  0.077679  1
  Ti  Ti9  1  0.666676  0.375009  0.077660  1
  Ti  Ti10  1  0.166670  0.874982  0.077699  1
  Ti  Ti11  1  0.666671  0.874982  0.077693  1
  Ti  Ti12  1  0.406922  0.382598  0.315734  1
  Ti  Ti13  1  0.905646  0.375153  0.319291  1
  Ti  Ti14  1  0.404334  0.883877  0.323425  1
  Ti  Ti15  1  0.907781  0.880814  0.313547  1
  Ti  Ti16  1  0.416666  0.375000  0.155290  1
  Ti  Ti17  1  0.916685  0.374990  0.155297  1
  Ti  Ti18  1  0.416677  0.874992  0.155338  1
  Ti  Ti19  1  0.916676  0.874963  0.155325  1
  Ti  Ti20  1  0.416660  0.375027  -0.000010  1
  Ti  Ti21  1  0.916648  0.375019  -0.000006  1
  Ti  Ti22  1  0.416665  0.874982  -0.000020  1
  Ti  Ti23  1  0.916655  0.874984  -0.000009  1
  Ti  Ti24  1  0.094354  0.124847  0.319290  1
  Ti  Ti25  1  0.593078  0.117402  0.315733  1
  Ti  Ti26  1  0.092219  0.619186  0.313546  1
  Ti  Ti27  1  0.595666  0.616123  0.323424  1
  Ti  Ti28  1  0.083315  0.125015  0.155297  1
  Ti  Ti29  1  0.583334  0.125006  0.155290  1
  Ti  Ti30  1  0.083324  0.625042  0.155325  1
  Ti  Ti31  1  0.583323  0.625013  0.155338  1
  Ti  Ti32  1  0.083352  0.124986  -0.000005  1
  Ti  Ti33  1  0.583341  0.124979  -0.000009  1
  Ti  Ti34  1  0.083345  0.625023  -0.000008  1
  Ti  Ti35  1  0.583335  0.625025  -0.000019  1
  Ti  Ti36  1  0.346422  0.151075  0.396772  1
  Ti  Ti37  1  0.849869  0.125069  0.403712  1
  Ti  Ti38  1  0.338478  0.634090  0.401945  1
  Ti  Ti39  1  0.858014  0.637877  0.395605  1
  Ti  Ti40  1  0.340629  0.125235  0.234670  1
  Ti  Ti41  1  0.838274  0.128985  0.235460  1
  Ti  Ti42  1  0.341953  0.628490  0.235818  1
  Ti  Ti43  1  0.837882  0.626142  0.235782  1
  Ti  Ti44  1  0.333323  0.124996  0.077661  1
  Ti  Ti45  1  0.833341  0.124977  0.077679  1
  Ti  Ti46  1  0.333328  0.625024  0.077693  1
  Ti  Ti47  1  0.833329  0.625023  0.077699  1
  Ti  Ti48  1  0.374985  0.375019  0.823902  1
  Ti  Ti49  1  0.874980  0.374968  0.823866  1
  Ti  Ti50  1  0.375042  0.874954  0.823800  1
  Ti  Ti51  1  0.875016  0.874974  0.823829  1
  Ti  Ti52  1  0.125024  0.125028  0.823866  1
  Ti  Ti53  1  0.625020  0.124981  0.823903  1
  Ti  Ti54  1  0.124986  0.625026  0.823830  1
  Ti  Ti55  1  0.624961  0.625040  0.823801  1
  Ti  Ti56  1  0.124986  0.375025  0.910142  1
  Ti  Ti57  1  0.625010  0.375016  0.910150  1
  Ti  Ti58  1  0.125021  0.874970  0.910115  1
  Ti  Ti59  1  0.624996  0.874964  0.910123  1
  Ti  Ti60  1  0.374993  0.124984  0.910151  1
  Ti  Ti61  1  0.875018  0.124975  0.910141  1
  Ti  Ti62  1  0.375006  0.625036  0.910122  1
  Ti  Ti63  1  0.874982  0.625030  0.910115  1
  Ti  Ti64  1  0.387072  0.376399  0.665315  1
  Ti  Ti65  1  0.886915  0.382205  0.647453  1
  Ti  Ti66  1  0.382419  0.891190  0.655496  1
  Ti  Ti67  1  0.895904  0.881647  0.659579  1
  Ti  Ti68  1  0.113085  0.117794  0.647453  1
  Ti  Ti69  1  0.612927  0.123598  0.665315  1
  Ti  Ti70  1  0.104095  0.618350  0.659579  1
  Ti  Ti71  1  0.617580  0.608807  0.655497  1
  Ti  Ti72  1  0.144495  0.367431  0.570154  1
  Ti  Ti73  1  0.635693  0.351847  0.574626  1
  Ti  Ti74  1  0.146090  0.856001  0.573171  1
  Ti  Ti75  1  0.669552  0.899874  0.576689  1
  Ti  Ti76  1  0.364307  0.148153  0.574625  1
  Ti  Ti77  1  0.855505  0.132569  0.570154  1
  Ti  Ti78  1  0.330447  0.600126  0.576689  1
  Ti  Ti79  1  0.853909  0.643998  0.573171  1
  Ti  Ti80  1  0.404060  0.389015  0.483050  1
  Ti  Ti81  1  0.892060  0.378914  0.488121  1
  Ti  Ti82  1  0.355915  0.925368  0.479724  1
  Ti  Ti83  1  0.910331  0.883044  0.486398  1
  Ti  Ti84  1  0.107940  0.121086  0.488121  1
  Ti  Ti85  1  0.595939  0.110984  0.483050  1
  Ti  Ti86  1  0.089669  0.616956  0.486398  1
  Ti  Ti87  1  0.644085  0.574632  0.479724  1
  Ti  Ti88  1  0.125408  0.875040  0.737601  1
  Ti  Ti89  1  0.625152  0.874894  0.737630  1
  Ti  Ti90  1  0.374841  0.625093  0.737629  1
  Ti  Ti91  1  0.874587  0.624949  0.737604  1
  Ti  Ti92  1  0.124866  0.374874  0.737618  1
  Ti  Ti93  1  0.625067  0.374771  0.737693  1
  Ti  Ti94  1  0.374926  0.125212  0.737691  1
  Ti  Ti95  1  0.875130  0.125114  0.737615  1
  Ti  Ti96  1  0.500000  0.750000  0.527121  1
