# generated using pymatgen
data_Ti96Al
_symmetry_space_group_name_H-M   'P 1'
_cell_length_a   9.51302000
_cell_length_b   9.35086000
_cell_length_c   18.54723000
_cell_angle_alpha   90.00000000
_cell_angle_beta   90.00000000
_cell_angle_gamma   90.00000000
_symmetry_Int_Tables_number   1
_chemical_formula_structural   Ti96Al
_chemical_formula_sum   'Ti96 Al1'
_cell_volume   1649.86732743
_cell_formula_units_Z   1
loop_
 _symmetry_equiv_pos_site_id
 _symmetry_equiv_pos_as_xyz
  1  'x, y, z'
loop_
 _atom_site_type_symbol
 _atom_site_label
 _atom_site_symmetry_multiplicity
 _atom_site_fract_x
 _atom_site_fract_y
 _atom_site_fract_z
 _atom_site_occupancy
  Ti  Ti0  1  0.153118  0.388428  0.405196  1
  Ti  Ti1  1  0.656209  0.339018  0.421588  1
  Ti  Ti2  1  0.130604  0.853961  0.418217  1
  Ti  Ti3  1  0.646184  0.852395  0.398964  1
  Ti  Ti4  1  0.139274  0.358693  0.243255  1
  Ti  Ti5  1  0.657740  0.370184  0.236267  1
  Ti  Ti6  1  0.170795  0.864130  0.236844  1
  Ti  Ti7  1  0.684036  0.914598  0.232737  1
  Ti  Ti8  1  0.166666  0.375000  0.077689  1
  Ti  Ti9  1  0.666666  0.375000  0.077689  1
  Ti  Ti10  1  0.166666  0.875000  0.077689  1
  Ti  Ti11  1  0.666666  0.875000  0.077689  1
  Ti  Ti12  1  0.406654  0.375488  0.326934  1
  Ti  Ti13  1  0.893129  0.375773  0.330649  1
  Ti  Ti14  1  0.355525  0.934475  0.343711  1
  Ti  Ti15  1  0.914458  0.876634  0.316029  1
  Ti  Ti16  1  0.416667  0.375000  0.155379  1
  Ti  Ti17  1  0.916667  0.375000  0.155379  1
  Ti  Ti18  1  0.416667  0.875000  0.155379  1
  Ti  Ti19  1  0.916667  0.875000  0.155379  1
  Ti  Ti20  1  0.416667  0.375000  0.000000  1
  Ti  Ti21  1  0.916667  0.375000  0.000000  1
  Ti  Ti22  1  0.416667  0.875000  0.000000  1
  Ti  Ti23  1  0.916667  0.875000  0.000000  1
  Ti  Ti24  1  0.106871  0.124227  0.330648  1
  Ti  Ti25  1  0.593346  0.124512  0.326933  1
  Ti  Ti26  1  0.085542  0.623366  0.316028  1
  Ti  Ti27  1  0.644475  0.565525  0.343710  1
  Ti  Ti28  1  0.083333  0.125000  0.155379  1
  Ti  Ti29  1  0.583333  0.125000  0.155379  1
  Ti  Ti30  1  0.083333  0.625000  0.155379  1
  Ti  Ti31  1  0.583333  0.625000  0.155379  1
  Ti  Ti32  1  0.083333  0.125000  0.000000  1
  Ti  Ti33  1  0.583333  0.125000  0.000000  1
  Ti  Ti34  1  0.083333  0.625000  0.000000  1
  Ti  Ti35  1  0.583333  0.625000  0.000000  1
  Ti  Ti36  1  0.343790  0.160982  0.421588  1
  Ti  Ti37  1  0.846881  0.111572  0.405196  1
  Ti  Ti38  1  0.353815  0.647605  0.398964  1
  Ti  Ti39  1  0.869395  0.646039  0.418217  1
  Ti  Ti40  1  0.342259  0.129816  0.236267  1
  Ti  Ti41  1  0.860725  0.141307  0.243255  1
  Ti  Ti42  1  0.315963  0.585402  0.232737  1
  Ti  Ti43  1  0.829204  0.635870  0.236844  1
  Ti  Ti44  1  0.333333  0.125000  0.077689  1
  Ti  Ti45  1  0.833333  0.125000  0.077689  1
  Ti  Ti46  1  0.333333  0.625000  0.077689  1
  Ti  Ti47  1  0.833333  0.625000  0.077689  1
  Ti  Ti48  1  0.375000  0.375000  0.823738  1
  Ti  Ti49  1  0.875000  0.375000  0.823738  1
  Ti  Ti50  1  0.375000  0.875000  0.823738  1
  Ti  Ti51  1  0.875000  0.875000  0.823738  1
  Ti  Ti52  1  0.125000  0.125000  0.823738  1
  Ti  Ti53  1  0.625000  0.125000  0.823738  1
  Ti  Ti54  1  0.125000  0.625000  0.823738  1
  Ti  Ti55  1  0.625000  0.625000  0.823738  1
  Ti  Ti56  1  0.125000  0.375000  0.910084  1
  Ti  Ti57  1  0.625000  0.375000  0.910084  1
  Ti  Ti58  1  0.125000  0.875000  0.910084  1
  Ti  Ti59  1  0.625000  0.875000  0.910084  1
  Ti  Ti60  1  0.375000  0.125000  0.910084  1
  Ti  Ti61  1  0.875000  0.125000  0.910084  1
  Ti  Ti62  1  0.375000  0.625000  0.910084  1
  Ti  Ti63  1  0.875000  0.625000  0.910084  1
  Ti  Ti64  1  0.395166  0.385068  0.656660  1
  Ti  Ti65  1  0.898429  0.379188  0.653527  1
  Ti  Ti66  1  0.399510  0.884243  0.651513  1
  Ti  Ti67  1  0.895005  0.884599  0.655308  1
  Ti  Ti68  1  0.101571  0.120812  0.653527  1
  Ti  Ti69  1  0.604834  0.114932  0.656660  1
  Ti  Ti70  1  0.104995  0.615401  0.655308  1
  Ti  Ti71  1  0.600490  0.615757  0.651513  1
  Ti  Ti72  1  0.154489  0.362843  0.572304  1
  Ti  Ti73  1  0.644686  0.360225  0.575889  1
  Ti  Ti74  1  0.150951  0.870387  0.578828  1
  Ti  Ti75  1  0.652810  0.864694  0.574919  1
  Ti  Ti76  1  0.355314  0.139775  0.575889  1
  Ti  Ti77  1  0.845511  0.137157  0.572304  1
  Ti  Ti78  1  0.347190  0.635306  0.574919  1
  Ti  Ti79  1  0.849049  0.629613  0.578828  1
  Ti  Ti80  1  0.403395  0.402895  0.489691  1
  Ti  Ti81  1  0.904330  0.378732  0.489108  1
  Ti  Ti82  1  0.393185  0.884728  0.493661  1
  Ti  Ti83  1  0.900707  0.885366  0.500774  1
  Ti  Ti84  1  0.095670  0.121268  0.489108  1
  Ti  Ti85  1  0.596605  0.097105  0.489691  1
  Ti  Ti86  1  0.099293  0.614634  0.500774  1
  Ti  Ti87  1  0.606815  0.615272  0.493661  1
  Ti  Ti88  1  0.125000  0.875000  0.737395  1
  Ti  Ti89  1  0.625000  0.875000  0.737395  1
  Ti  Ti90  1  0.375000  0.625000  0.737395  1
  Ti  Ti91  1  0.875000  0.625000  0.737395  1
  Ti  Ti92  1  0.125000  0.375000  0.737395  1
  Ti  Ti93  1  0.625000  0.375000  0.737395  1
  Ti  Ti94  1  0.375000  0.125000  0.737395  1
  Ti  Ti95  1  0.875000  0.125000  0.737395  1
  Al  Al96  1  0.500000  0.750000  0.279636  1
