# generated using pymatgen
data_Ti96Sn
_symmetry_space_group_name_H-M   'P 1'
_cell_length_a   9.51302000
_cell_length_b   9.35086000
_cell_length_c   18.54723000
_cell_angle_alpha   90.00000000
_cell_angle_beta   90.00000000
_cell_angle_gamma   90.00000000
_symmetry_Int_Tables_number   1
_chemical_formula_structural   Ti96Sn
_chemical_formula_sum   'Ti96 Sn1'
_cell_volume   1649.86732743
_cell_formula_units_Z   1
loop_
 _symmetry_equiv_pos_site_id
 _symmetry_equiv_pos_as_xyz
  1  'x, y, z'
loop_
 _atom_site_type_symbol
 _atom_site_label
 _atom_site_symmetry_multiplicity
 _atom_site_fract_x
 _atom_site_fract_y
 _atom_site_fract_z
 _atom_site_occupancy
  Ti  Ti0  1  0.148444  0.380674  0.404079  1
  Ti  Ti1  1  0.645601  0.329753  0.410466  1
  Ti  Ti2  1  0.117695  0.851477  0.408552  1
  Ti  Ti3  1  0.690138  0.879546  0.401604  1
  Ti  Ti4  1  0.152603  0.365220  0.238112  1
  Ti  Ti5  1  0.659035  0.370991  0.234628  1
  Ti  Ti6  1  0.163478  0.869754  0.233276  1
  Ti  Ti7  1  0.671042  0.890844  0.232741  1
  Ti  Ti8  1  0.166653  0.375059  0.077417  1
  Ti  Ti9  1  0.666709  0.374989  0.077372  1
  Ti  Ti10  1  0.166628  0.875029  0.077460  1
  Ti  Ti11  1  0.666577  0.874958  0.077530  1
  Ti  Ti12  1  0.410319  0.383092  0.318281  1
  Ti  Ti13  1  0.897519  0.371103  0.324031  1
  Ti  Ti14  1  0.352921  0.929642  0.336070  1
  Ti  Ti15  1  0.918070  0.883874  0.309987  1
  Ti  Ti16  1  0.416743  0.375111  0.154916  1
  Ti  Ti17  1  0.916756  0.374745  0.154839  1
  Ti  Ti18  1  0.416620  0.874967  0.155345  1
  Ti  Ti19  1  0.916716  0.875205  0.154777  1
  Ti  Ti20  1  0.416663  0.375047  -0.000120  1
  Ti  Ti21  1  0.916637  0.374975  -0.000184  1
  Ti  Ti22  1  0.416659  0.874964  0.000007  1
  Ti  Ti23  1  0.916629  0.875005  -0.000164  1
  Ti  Ti24  1  0.102482  0.128900  0.324030  1
  Ti  Ti25  1  0.589681  0.116911  0.318280  1
  Ti  Ti26  1  0.081930  0.616130  0.309987  1
  Ti  Ti27  1  0.647079  0.570360  0.336069  1
  Ti  Ti28  1  0.083242  0.125294  0.154835  1
  Ti  Ti29  1  0.583257  0.124926  0.154917  1
  Ti  Ti30  1  0.083283  0.624836  0.154779  1
  Ti  Ti31  1  0.583382  0.625049  0.155345  1
  Ti  Ti32  1  0.083365  0.125036  -0.000186  1
  Ti  Ti33  1  0.583337  0.124969  -0.000119  1
  Ti  Ti34  1  0.083372  0.625007  -0.000163  1
  Ti  Ti35  1  0.583344  0.625036  0.000005  1
  Ti  Ti36  1  0.354398  0.170247  0.410466  1
  Ti  Ti37  1  0.851555  0.119326  0.404080  1
  Ti  Ti38  1  0.309861  0.620455  0.401604  1
  Ti  Ti39  1  0.882304  0.648524  0.408552  1
  Ti  Ti40  1  0.340964  0.129016  0.234627  1
  Ti  Ti41  1  0.847397  0.134788  0.238112  1
  Ti  Ti42  1  0.328957  0.609164  0.232742  1
  Ti  Ti43  1  0.836521  0.630256  0.233276  1
  Ti  Ti44  1  0.333291  0.125040  0.077372  1
  Ti  Ti45  1  0.833346  0.124969  0.077417  1
  Ti  Ti46  1  0.333422  0.625066  0.077529  1
  Ti  Ti47  1  0.833372  0.624997  0.077460  1
  Ti  Ti48  1  0.375066  0.375119  0.823835  1
  Ti  Ti49  1  0.874925  0.374979  0.823890  1
  Ti  Ti50  1  0.375094  0.874917  0.823760  1
  Ti  Ti51  1  0.874931  0.874983  0.823834  1
  Ti  Ti52  1  0.125075  0.124991  0.823888  1
  Ti  Ti53  1  0.624939  0.124868  0.823836  1
  Ti  Ti54  1  0.125072  0.624996  0.823834  1
  Ti  Ti55  1  0.624911  0.625065  0.823759  1
  Ti  Ti56  1  0.125086  0.375109  0.910145  1
  Ti  Ti57  1  0.624978  0.375125  0.910183  1
  Ti  Ti58  1  0.125135  0.874930  0.910194  1
  Ti  Ti59  1  0.624944  0.874895  0.910258  1
  Ti  Ti60  1  0.375029  0.124854  0.910185  1
  Ti  Ti61  1  0.874921  0.124876  0.910145  1
  Ti  Ti62  1  0.375060  0.625075  0.910257  1
  Ti  Ti63  1  0.874870  0.625046  0.910194  1
  Ti  Ti64  1  0.394552  0.386552  0.658121  1
  Ti  Ti65  1  0.893559  0.380032  0.650691  1
  Ti  Ti66  1  0.392859  0.890318  0.647539  1
  Ti  Ti67  1  0.885838  0.886877  0.665265  1
  Ti  Ti68  1  0.106439  0.119962  0.650691  1
  Ti  Ti69  1  0.605446  0.113441  0.658121  1
  Ti  Ti70  1  0.114159  0.613113  0.665265  1
  Ti  Ti71  1  0.607140  0.609676  0.647540  1
  Ti  Ti72  1  0.150432  0.368398  0.574451  1
  Ti  Ti73  1  0.642593  0.346383  0.573994  1
  Ti  Ti74  1  0.130577  0.859513  0.584714  1
  Ti  Ti75  1  0.655675  0.863643  0.576295  1
  Ti  Ti76  1  0.357407  0.153615  0.573994  1
  Ti  Ti77  1  0.849567  0.131600  0.574450  1
  Ti  Ti78  1  0.344324  0.636354  0.576294  1
  Ti  Ti79  1  0.869422  0.640484  0.584714  1
  Ti  Ti80  1  0.405978  0.407770  0.491057  1
  Ti  Ti81  1  0.899594  0.371207  0.486363  1
  Ti  Ti82  1  0.340759  0.916173  0.492305  1
  Ti  Ti83  1  0.905735  0.895048  0.498950  1
  Ti  Ti84  1  0.100406  0.128792  0.486362  1
  Ti  Ti85  1  0.594022  0.092229  0.491057  1
  Ti  Ti86  1  0.094265  0.604951  0.498950  1
  Ti  Ti87  1  0.659241  0.583826  0.492305  1
  Ti  Ti88  1  0.125060  0.875083  0.737761  1
  Ti  Ti89  1  0.624827  0.874947  0.737542  1
  Ti  Ti90  1  0.375170  0.625033  0.737538  1
  Ti  Ti91  1  0.874929  0.624883  0.737763  1
  Ti  Ti92  1  0.124923  0.374958  0.737740  1
  Ti  Ti93  1  0.624947  0.374925  0.737712  1
  Ti  Ti94  1  0.375043  0.125045  0.737711  1
  Ti  Ti95  1  0.875068  0.125012  0.737739  1
  Sn  Sn96  1  0.500000  0.750000  0.382726  1
