# generated using pymatgen
data_Ti96Nb
_symmetry_space_group_name_H-M   'P 1'
_cell_length_a   9.51302000
_cell_length_b   9.35086000
_cell_length_c   18.54723000
_cell_angle_alpha   90.00000000
_cell_angle_beta   90.00000000
_cell_angle_gamma   90.00000000
_symmetry_Int_Tables_number   1
_chemical_formula_structural   Ti96Nb
_chemical_formula_sum   'Ti96 Nb1'
_cell_volume   1649.86732743
_cell_formula_units_Z   1
loop_
 _symmetry_equiv_pos_site_id
 _symmetry_equiv_pos_as_xyz
  1  'x, y, z'
loop_
 _atom_site_type_symbol
 _atom_site_label
 _atom_site_symmetry_multiplicity
 _atom_site_fract_x
 _atom_site_fract_y
 _atom_site_fract_z
 _atom_site_occupancy
  Ti  Ti0  1  0.142584  0.368276  0.402421  1
  Ti  Ti1  1  0.661346  0.357420  0.391679  1
  Ti  Ti2  1  0.155093  0.865795  0.399837  1
  Ti  Ti3  1  0.665077  0.877431  0.409280  1
  Ti  Ti4  1  0.161555  0.372793  0.237008  1
  Ti  Ti5  1  0.659648  0.370998  0.232780  1
  Ti  Ti6  1  0.160423  0.873651  0.234731  1
  Ti  Ti7  1  0.661002  0.869628  0.237274  1
  Ti  Ti8  1  0.166675  0.375045  0.077593  1
  Ti  Ti9  1  0.666658  0.374957  0.077578  1
  Ti  Ti10  1  0.166689  0.875042  0.077600  1
  Ti  Ti11  1  0.666649  0.874963  0.077632  1
  Ti  Ti12  1  0.406642  0.383163  0.316722  1
  Ti  Ti13  1  0.909871  0.379638  0.316515  1
  Ti  Ti14  1  0.402375  0.882712  0.315229  1
  Ti  Ti15  1  0.907084  0.876901  0.318259  1
  Ti  Ti16  1  0.416672  0.375076  0.155199  1
  Ti  Ti17  1  0.916649  0.374887  0.155186  1
  Ti  Ti18  1  0.416660  0.875067  0.155244  1
  Ti  Ti19  1  0.916686  0.874997  0.155174  1
  Ti  Ti20  1  0.416681  0.375074  -0.000067  1
  Ti  Ti21  1  0.916611  0.375023  -0.000051  1
  Ti  Ti22  1  0.416667  0.874986  -0.000104  1
  Ti  Ti23  1  0.916611  0.874983  -0.000077  1
  Ti  Ti24  1  0.090129  0.120363  0.316513  1
  Ti  Ti25  1  0.593358  0.116839  0.316721  1
  Ti  Ti26  1  0.092916  0.623100  0.318258  1
  Ti  Ti27  1  0.597625  0.617289  0.315228  1
  Ti  Ti28  1  0.083350  0.125128  0.155184  1
  Ti  Ti29  1  0.583328  0.124939  0.155199  1
  Ti  Ti30  1  0.083314  0.625021  0.155174  1
  Ti  Ti31  1  0.583342  0.624948  0.155245  1
  Ti  Ti32  1  0.083390  0.124987  -0.000052  1
  Ti  Ti33  1  0.583321  0.124942  -0.000068  1
  Ti  Ti34  1  0.083391  0.625035  -0.000075  1
  Ti  Ti35  1  0.583335  0.625033  -0.000103  1
  Ti  Ti36  1  0.338653  0.142580  0.391679  1
  Ti  Ti37  1  0.857415  0.131724  0.402421  1
  Ti  Ti38  1  0.334922  0.622570  0.409280  1
  Ti  Ti39  1  0.844906  0.634205  0.399837  1
  Ti  Ti40  1  0.340351  0.129006  0.232779  1
  Ti  Ti41  1  0.838444  0.127210  0.237008  1
  Ti  Ti42  1  0.338997  0.630376  0.237274  1
  Ti  Ti43  1  0.839577  0.626353  0.234731  1
  Ti  Ti44  1  0.333341  0.125059  0.077576  1
  Ti  Ti45  1  0.833324  0.124970  0.077592  1
  Ti  Ti46  1  0.333351  0.625053  0.077632  1
  Ti  Ti47  1  0.833311  0.624975  0.077601  1
  Ti  Ti48  1  0.375076  0.374992  0.823891  1
  Ti  Ti49  1  0.874961  0.374880  0.823950  1
  Ti  Ti50  1  0.375070  0.875152  0.823776  1
  Ti  Ti51  1  0.874899  0.874983  0.823924  1
  Ti  Ti52  1  0.125045  0.125096  0.823947  1
  Ti  Ti53  1  0.624936  0.125009  0.823891  1
  Ti  Ti54  1  0.125103  0.625010  0.823925  1
  Ti  Ti55  1  0.624935  0.624836  0.823781  1
  Ti  Ti56  1  0.125036  0.375021  0.910168  1
  Ti  Ti57  1  0.625000  0.374964  0.910136  1
  Ti  Ti58  1  0.125078  0.875028  0.910123  1
  Ti  Ti59  1  0.624953  0.874983  0.910091  1
  Ti  Ti60  1  0.375004  0.125031  0.910134  1
  Ti  Ti61  1  0.874971  0.124975  0.910166  1
  Ti  Ti62  1  0.375052  0.625013  0.910090  1
  Ti  Ti63  1  0.874932  0.624970  0.910125  1
  Ti  Ti64  1  0.381740  0.374174  0.667585  1
  Ti  Ti65  1  0.884659  0.391050  0.648931  1
  Ti  Ti66  1  0.375879  0.885584  0.663506  1
  Ti  Ti67  1  0.903597  0.880066  0.652487  1
  Ti  Ti68  1  0.115338  0.108945  0.648931  1
  Ti  Ti69  1  0.618257  0.125818  0.667585  1
  Ti  Ti70  1  0.096398  0.619925  0.652488  1
  Ti  Ti71  1  0.624120  0.614408  0.663507  1
  Ti  Ti72  1  0.136371  0.359366  0.571550  1
  Ti  Ti73  1  0.634830  0.362604  0.581593  1
  Ti  Ti74  1  0.159933  0.852534  0.564774  1
  Ti  Ti75  1  0.674872  0.918175  0.570412  1
  Ti  Ti76  1  0.365169  0.137394  0.581592  1
  Ti  Ti77  1  0.863628  0.140633  0.571550  1
  Ti  Ti78  1  0.325127  0.581822  0.570412  1
  Ti  Ti79  1  0.840066  0.647463  0.564774  1
  Ti  Ti80  1  0.397310  0.359109  0.483086  1
  Ti  Ti81  1  0.883663  0.384030  0.490802  1
  Ti  Ti82  1  0.384254  0.933934  0.476776  1
  Ti  Ti83  1  0.917775  0.885669  0.484259  1
  Ti  Ti84  1  0.116337  0.115969  0.490802  1
  Ti  Ti85  1  0.602689  0.140890  0.483086  1
  Ti  Ti86  1  0.082224  0.614331  0.484259  1
  Ti  Ti87  1  0.615746  0.566065  0.476776  1
  Ti  Ti88  1  0.125543  0.875334  0.737748  1
  Ti  Ti89  1  0.624898  0.874931  0.737639  1
  Ti  Ti90  1  0.375093  0.625043  0.737637  1
  Ti  Ti91  1  0.874446  0.624636  0.737761  1
  Ti  Ti92  1  0.125057  0.374895  0.737808  1
  Ti  Ti93  1  0.625231  0.374733  0.737672  1
  Ti  Ti94  1  0.374760  0.125243  0.737669  1
  Ti  Ti95  1  0.874929  0.125072  0.737805  1
  Nb  Nb96  1  0.500000  0.749999  0.530232  1
