# generated using pymatgen
data_Ti96Nb
_symmetry_space_group_name_H-M   'P 1'
_cell_length_a   9.51302000
_cell_length_b   9.35086000
_cell_length_c   18.54723000
_cell_angle_alpha   90.00000000
_cell_angle_beta   90.00000000
_cell_angle_gamma   90.00000000
_symmetry_Int_Tables_number   1
_chemical_formula_structural   Ti96Nb
_chemical_formula_sum   'Ti96 Nb1'
_cell_volume   1649.86732743
_cell_formula_units_Z   1
loop_
 _symmetry_equiv_pos_site_id
 _symmetry_equiv_pos_as_xyz
  1  'x, y, z'
loop_
 _atom_site_type_symbol
 _atom_site_label
 _atom_site_symmetry_multiplicity
 _atom_site_fract_x
 _atom_site_fract_y
 _atom_site_fract_z
 _atom_site_occupancy
  Ti  Ti0  1  0.146485  0.374039  0.403165  1
  Ti  Ti1  1  0.643669  0.335970  0.408795  1
  Ti  Ti2  1  0.135320  0.851803  0.416631  1
  Ti  Ti3  1  0.665858  0.885340  0.411803  1
  Ti  Ti4  1  0.154173  0.372681  0.240371  1
  Ti  Ti5  1  0.660138  0.360287  0.232737  1
  Ti  Ti6  1  0.153401  0.868076  0.230488  1
  Ti  Ti7  1  0.669871  0.878047  0.234403  1
  Ti  Ti8  1  0.166711  0.375042  0.077593  1
  Ti  Ti9  1  0.666689  0.374919  0.077562  1
  Ti  Ti10  1  0.166698  0.875016  0.077626  1
  Ti  Ti11  1  0.666622  0.874975  0.077635  1
  Ti  Ti12  1  0.414412  0.392154  0.319907  1
  Ti  Ti13  1  0.900823  0.373665  0.321689  1
  Ti  Ti14  1  0.335067  0.933045  0.327409  1
  Ti  Ti15  1  0.911700  0.877513  0.320102  1
  Ti  Ti16  1  0.416746  0.375031  0.155209  1
  Ti  Ti17  1  0.916694  0.374839  0.155157  1
  Ti  Ti18  1  0.416569  0.875046  0.155377  1
  Ti  Ti19  1  0.916683  0.875110  0.155153  1
  Ti  Ti20  1  0.416687  0.375008  -0.000044  1
  Ti  Ti21  1  0.916659  0.374973  -0.000060  1
  Ti  Ti22  1  0.416666  0.874989  0.000001  1
  Ti  Ti23  1  0.916671  0.874997  -0.000049  1
  Ti  Ti24  1  0.099177  0.126335  0.321688  1
  Ti  Ti25  1  0.585588  0.107846  0.319905  1
  Ti  Ti26  1  0.088300  0.622488  0.320101  1
  Ti  Ti27  1  0.664933  0.566956  0.327409  1
  Ti  Ti28  1  0.083305  0.125171  0.155155  1
  Ti  Ti29  1  0.583255  0.124977  0.155209  1
  Ti  Ti30  1  0.083317  0.624900  0.155154  1
  Ti  Ti31  1  0.583432  0.624956  0.155377  1
  Ti  Ti32  1  0.083342  0.125026  -0.000061  1
  Ti  Ti33  1  0.583313  0.124993  -0.000045  1
  Ti  Ti34  1  0.083328  0.625002  -0.000048  1
  Ti  Ti35  1  0.583336  0.625008  0.000002  1
  Ti  Ti36  1  0.356330  0.164030  0.408795  1
  Ti  Ti37  1  0.853514  0.125961  0.403165  1
  Ti  Ti38  1  0.334141  0.614661  0.411803  1
  Ti  Ti39  1  0.864679  0.648197  0.416631  1
  Ti  Ti40  1  0.339861  0.139714  0.232737  1
  Ti  Ti41  1  0.845826  0.127320  0.240371  1
  Ti  Ti42  1  0.330128  0.621955  0.234403  1
  Ti  Ti43  1  0.846598  0.631926  0.230488  1
  Ti  Ti44  1  0.333310  0.125086  0.077561  1
  Ti  Ti45  1  0.833288  0.124962  0.077593  1
  Ti  Ti46  1  0.333377  0.625028  0.077635  1
  Ti  Ti47  1  0.833302  0.624987  0.077627  1
  Ti  Ti48  1  0.375013  0.375021  0.823741  1
  Ti  Ti49  1  0.874976  0.374993  0.823743  1
  Ti  Ti50  1  0.375007  0.874999  0.823723  1
  Ti  Ti51  1  0.874989  0.874989  0.823740  1
  Ti  Ti52  1  0.125025  0.125005  0.823742  1
  Ti  Ti53  1  0.624990  0.124979  0.823741  1
  Ti  Ti54  1  0.125012  0.625009  0.823740  1
  Ti  Ti55  1  0.624995  0.624999  0.823724  1
  Ti  Ti56  1  0.124993  0.375018  0.910053  1
  Ti  Ti57  1  0.625000  0.375003  0.910059  1
  Ti  Ti58  1  0.125006  0.874996  0.910059  1
  Ti  Ti59  1  0.624981  0.874981  0.910071  1
  Ti  Ti60  1  0.375002  0.124996  0.910059  1
  Ti  Ti61  1  0.875009  0.124981  0.910053  1
  Ti  Ti62  1  0.375020  0.625015  0.910071  1
  Ti  Ti63  1  0.874996  0.625001  0.910059  1
  Ti  Ti64  1  0.394231  0.386783  0.654157  1
  Ti  Ti65  1  0.901053  0.385159  0.653127  1
  Ti  Ti66  1  0.396157  0.882440  0.654903  1
  Ti  Ti67  1  0.888256  0.886843  0.656806  1
  Ti  Ti68  1  0.098946  0.114840  0.653127  1
  Ti  Ti69  1  0.605768  0.113215  0.654157  1
  Ti  Ti70  1  0.111743  0.613156  0.656806  1
  Ti  Ti71  1  0.603843  0.617558  0.654903  1
  Ti  Ti72  1  0.149257  0.361014  0.573693  1
  Ti  Ti73  1  0.652299  0.365990  0.579501  1
  Ti  Ti74  1  0.145502  0.863519  0.577756  1
  Ti  Ti75  1  0.643488  0.858327  0.569229  1
  Ti  Ti76  1  0.347700  0.134010  0.579501  1
  Ti  Ti77  1  0.850743  0.138986  0.573693  1
  Ti  Ti78  1  0.356511  0.641673  0.569229  1
  Ti  Ti79  1  0.854498  0.636480  0.577756  1
  Ti  Ti80  1  0.402114  0.382312  0.499110  1
  Ti  Ti81  1  0.892705  0.377945  0.485485  1
  Ti  Ti82  1  0.390599  0.902435  0.485558  1
  Ti  Ti83  1  0.904039  0.893896  0.498547  1
  Ti  Ti84  1  0.107295  0.122055  0.485485  1
  Ti  Ti85  1  0.597886  0.117688  0.499110  1
  Ti  Ti86  1  0.095961  0.606104  0.498547  1
  Ti  Ti87  1  0.609401  0.597565  0.485558  1
  Ti  Ti88  1  0.125012  0.875081  0.737472  1
  Ti  Ti89  1  0.624969  0.874973  0.737470  1
  Ti  Ti90  1  0.375027  0.625019  0.737469  1
  Ti  Ti91  1  0.874985  0.624912  0.737473  1
  Ti  Ti92  1  0.124966  0.374991  0.737479  1
  Ti  Ti93  1  0.624990  0.374964  0.737476  1
  Ti  Ti94  1  0.375007  0.125029  0.737476  1
  Ti  Ti95  1  0.875031  0.125002  0.737478  1
  Nb  Nb96  1  0.500000  0.750000  0.336233  1
