#======================================================================

# CRYSTAL DATA

#----------------------------------------------------------------------

data_VESTA_phase_1


_chemical_name_common                  'Optimistic_Structure                  '
_cell_length_a                         8.80526
_cell_length_b                         8.80526
_cell_length_c                         22.77840
_cell_angle_alpha                      90
_cell_angle_beta                       90
_cell_angle_gamma                      120
_space_group_name_H-M_alt              'P 1'
_space_group_IT_number                 1

loop_
_space_group_symop_operation_xyz
   'x, y, z'

loop_
   _atom_site_label
   _atom_site_occupancy
   _atom_site_fract_x
   _atom_site_fract_y
   _atom_site_fract_z
   _atom_site_adp_type
   _atom_site_B_iso_or_equiv
   _atom_site_type_symbol
   Ti1        1.0     0.055556      0.055556      0.588162     Biso  1.000000 Ti
   Ti2        1.0     0.099064      0.577309      0.587667     Biso  1.000000 Ti
   Ti3        1.0     0.533802      0.012048      0.587667     Biso  1.000000 Ti
   Ti4        1.0     0.533802      0.577309      0.587667     Biso  1.000000 Ti
   Ti5        1.0     0.222222      0.388889      0.873911     Biso  1.000000 Ti
   Ti6        1.0     0.222222      0.888889      0.873911     Biso  1.000000 Ti
   Ti7        1.0     0.722222      0.388889      0.873911     Biso  1.000000 Ti
   Ti8        1.0     0.722222      0.888889      0.873911     Biso  1.000000 Ti
   Ti9        1.0     0.388889      0.222222      0.914502     Biso  1.000000 Ti
   Ti10       1.0     0.388889      0.722222      0.914502     Biso  1.000000 Ti
   Ti11       1.0     0.888889      0.222222      0.914502     Biso  1.000000 Ti
   Ti12       1.0     0.888889      0.722222      0.914502     Biso  1.000000 Ti
   Ti13       1.0     0.213687      0.371819      0.632337     Biso  1.000000 Ti
   Ti14       1.0     0.213687      0.897424      0.632337     Biso  1.000000 Ti
   Ti15       1.0     0.722222      0.388889      0.601034     Biso  1.000000 Ti
   Ti16       1.0     0.739292      0.897424      0.632337     Biso  1.000000 Ti
   Ti17       1.0     0.399718      0.227637      0.645647     Biso  1.000000 Ti
   Ti18       1.0     0.388889      0.722222      0.657390     Biso  1.000000 Ti
   Ti19       1.0     0.883474      0.227637      0.645647     Biso  1.000000 Ti
   Ti20       1.0     0.883474      0.711393      0.645647     Biso  1.000000 Ti
   Ti21       1.0     0.055556      0.055556      0.703704     Biso  1.000000 Ti
   Ti22       1.0     0.049846      0.552700      0.702492     Biso  1.000000 Ti
   Ti23       1.0     0.558411      0.061266      0.702492     Biso  1.000000 Ti
   Ti24       1.0     0.558411      0.552700      0.702492     Biso  1.000000 Ti
   Ti25       1.0     0.222222      0.388889      0.752136     Biso  1.000000 Ti
   Ti26       1.0     0.222222      0.888889      0.752136     Biso  1.000000 Ti
   Ti27       1.0     0.722222      0.388889      0.752136     Biso  1.000000 Ti
   Ti28       1.0     0.722222      0.888889      0.752136     Biso  1.000000 Ti
   Ti29       1.0     0.388889      0.222222      0.792728     Biso  1.000000 Ti
   Ti30       1.0     0.388889      0.722222      0.792728     Biso  1.000000 Ti
   Ti31       1.0     0.888889      0.222222      0.792728     Biso  1.000000 Ti
   Ti32       1.0     0.888889      0.722222      0.792728     Biso  1.000000 Ti
   Ti33       1.0     0.055556      0.055556      0.833319     Biso  1.000000 Ti
   Ti34       1.0     0.055556      0.555555      0.833319     Biso  1.000000 Ti
   Ti35       1.0     0.555556      0.055556      0.833319     Biso  1.000000 Ti
   Ti36       1.0     0.555556      0.555555      0.833319     Biso  1.000000 Ti
   Ti37       1.0     0.166666      0.944444      0.000000     Biso  1.000000 Ti
   Ti38       1.0     0.165483      0.945627      0.406044     Biso  1.000000 Ti
   Ti39       1.0     0.166666      0.611111      0.000000     Biso  1.000000 Ti
   Ti40       1.0     0.277778      0.833333      0.100855     Biso  1.000000 Ti
   Ti41       1.0     0.170569      0.613062      0.400530     Biso  1.000000 Ti
   Ti42       1.0     0.500000      0.944444      0.000000     Biso  1.000000 Ti
   Ti43       1.0     0.166666      0.277778      0.000000     Biso  1.000000 Ti
   Ti44       1.0     0.276131      0.834980      0.501705     Biso  1.000000 Ti
   Ti45       1.0     0.277778      0.500000      0.100855     Biso  1.000000 Ti
   Ti46       1.0     0.498049      0.940541      0.400530     Biso  1.000000 Ti
   Ti47       1.0     0.165483      0.275411      0.406044     Biso  1.000000 Ti
   Ti48       1.0     0.500000      0.611111      0.000000     Biso  1.000000 Ti
   Ti49       1.0     0.276131      0.496705      0.501705     Biso  1.000000 Ti
   Ti50       1.0     0.611111      0.833333      0.100855     Biso  1.000000 Ti
   Ti51       1.0     0.277778      0.166667      0.100855     Biso  1.000000 Ti
   Ti52       1.0     0.498049      0.613062      0.400530     Biso  1.000000 Ti
   Ti53       1.0     0.833333      0.944444      0.000000     Biso  1.000000 Ti
   Ti54       1.0     0.500000      0.277778      0.000000     Biso  1.000000 Ti
   Ti55       1.0     0.614406      0.834980      0.501705     Biso  1.000000 Ti
   Ti56       1.0     0.314282      0.184919      0.515597     Biso  1.000000 Ti
   Ti57       1.0     0.611111      0.500000      0.100855     Biso  1.000000 Ti
   Ti58       1.0     0.835700      0.945627      0.406044     Biso  1.000000 Ti
   Ti59       1.0     0.493487      0.274522      0.401063     Biso  1.000000 Ti
   Ti60       1.0     0.833333      0.611111      0.000000     Biso  1.000000 Ti
   Ti61       1.0     0.614084      0.497027      0.495065     Biso  1.000000 Ti
   Ti62       1.0     0.944444      0.833333      0.100855     Biso  1.000000 Ti
   Ti63       1.0     0.611111      0.166667      0.100855     Biso  1.000000 Ti
   Ti64       1.0     0.836589      0.617624      0.401063     Biso  1.000000 Ti
   Ti65       1.0     0.833333      0.277778      0.000000     Biso  1.000000 Ti
   Ti66       1.0     0.926192      0.796829      0.515597     Biso  1.000000 Ti
   Ti67       1.0     0.614084      0.172613      0.495065     Biso  1.000000 Ti
   Ti68       1.0     0.944444      0.500000      0.100855     Biso  1.000000 Ti
   Ti69       1.0     0.836589      0.274522      0.401063     Biso  1.000000 Ti
   Ti70       1.0     0.938498      0.497027      0.495065     Biso  1.000000 Ti
   Ti71       1.0     0.944444      0.166667      0.100855     Biso  1.000000 Ti
   Ti72       1.0     0.926192      0.184919      0.515597     Biso  1.000000 Ti
   Ti73       1.0     0.166666      0.944444      0.201710     Biso  1.000000 Ti
   Ti74       1.0     0.166666      0.611111      0.201710     Biso  1.000000 Ti
   Ti75       1.0     0.276722      0.834389      0.302167     Biso  1.000000 Ti
   Ti76       1.0     0.500000      0.944444      0.201710     Biso  1.000000 Ti
   Ti77       1.0     0.166666      0.277778      0.201710     Biso  1.000000 Ti
   Ti78       1.0     0.276722      0.497887      0.302167     Biso  1.000000 Ti
   Ti79       1.0     0.500000      0.611111      0.201710     Biso  1.000000 Ti
   Ti80       1.0     0.613223      0.834389      0.302167     Biso  1.000000 Ti
   Ti81       1.0     0.274547      0.165051      0.304158     Biso  1.000000 Ti
   Ti82       1.0     0.833333      0.944444      0.201710     Biso  1.000000 Ti
   Ti83       1.0     0.500000      0.277778      0.201710     Biso  1.000000 Ti
   Ti84       1.0     0.610825      0.500286      0.301642     Biso  1.000000 Ti
   Ti85       1.0     0.833333      0.611111      0.201710     Biso  1.000000 Ti
   Ti86       1.0     0.946060      0.836564      0.304158     Biso  1.000000 Ti
   Ti87       1.0     0.610825      0.166094      0.301642     Biso  1.000000 Ti
   Ti88       1.0     0.833333      0.277778      0.201710     Biso  1.000000 Ti
   Ti89       1.0     0.945017      0.500286      0.301642     Biso  1.000000 Ti
   Ti90       1.0     0.946060      0.165051      0.304158     Biso  1.000000 Ti
