# generated using pymatgen
data_Ti96Sn
_symmetry_space_group_name_H-M   'P 1'
_cell_length_a   9.51302000
_cell_length_b   9.35086000
_cell_length_c   18.54723000
_cell_angle_alpha   90.00000000
_cell_angle_beta   90.00000000
_cell_angle_gamma   90.00000000
_symmetry_Int_Tables_number   1
_chemical_formula_structural   Ti96Sn
_chemical_formula_sum   'Ti96 Sn1'
_cell_volume   1649.86732743
_cell_formula_units_Z   1
loop_
 _symmetry_equiv_pos_site_id
 _symmetry_equiv_pos_as_xyz
  1  'x, y, z'
loop_
 _atom_site_type_symbol
 _atom_site_label
 _atom_site_symmetry_multiplicity
 _atom_site_fract_x
 _atom_site_fract_y
 _atom_site_fract_z
 _atom_site_occupancy
  Ti  Ti0  1  0.138815  0.377637  0.401133  1
  Ti  Ti1  1  0.647802  0.376756  0.399247  1
  Ti  Ti2  1  0.166773  0.896063  0.388576  1
  Ti  Ti3  1  0.648813  0.910638  0.410167  1
  Ti  Ti4  1  0.163056  0.379590  0.236782  1
  Ti  Ti5  1  0.660858  0.378956  0.234273  1
  Ti  Ti6  1  0.157632  0.876121  0.234791  1
  Ti  Ti7  1  0.662279  0.877476  0.233355  1
  Ti  Ti8  1  0.166654  0.374994  0.077671  1
  Ti  Ti9  1  0.666666  0.374993  0.077669  1
  Ti  Ti10  1  0.166678  0.875001  0.077674  1
  Ti  Ti11  1  0.666672  0.874995  0.077679  1
  Ti  Ti12  1  0.409859  0.369074  0.315417  1
  Ti  Ti13  1  0.905550  0.371384  0.313252  1
  Ti  Ti14  1  0.415995  0.870631  0.317497  1
  Ti  Ti15  1  0.897896  0.867589  0.320485  1
  Ti  Ti16  1  0.416649  0.375000  0.155325  1
  Ti  Ti17  1  0.916651  0.374990  0.155338  1
  Ti  Ti18  1  0.416687  0.875003  0.155328  1
  Ti  Ti19  1  0.916713  0.874991  0.155330  1
  Ti  Ti20  1  0.416663  0.375009  -0.000009  1
  Ti  Ti21  1  0.916657  0.375007  -0.000004  1
  Ti  Ti22  1  0.416673  0.874994  -0.000009  1
  Ti  Ti23  1  0.916661  0.874995  -0.000004  1
  Ti  Ti24  1  0.090141  0.130926  0.315416  1
  Ti  Ti25  1  0.594450  0.128617  0.313251  1
  Ti  Ti26  1  0.084005  0.629369  0.317495  1
  Ti  Ti27  1  0.602104  0.632411  0.320484  1
  Ti  Ti28  1  0.083352  0.125004  0.155325  1
  Ti  Ti29  1  0.583349  0.125013  0.155338  1
  Ti  Ti30  1  0.083313  0.625001  0.155328  1
  Ti  Ti31  1  0.583287  0.625012  0.155330  1
  Ti  Ti32  1  0.083338  0.124996  -0.000009  1
  Ti  Ti33  1  0.583343  0.124997  -0.000003  1
  Ti  Ti34  1  0.083327  0.625010  -0.000009  1
  Ti  Ti35  1  0.583340  0.625009  -0.000004  1
  Ti  Ti36  1  0.361184  0.122363  0.401133  1
  Ti  Ti37  1  0.852197  0.123244  0.399247  1
  Ti  Ti38  1  0.333226  0.603937  0.388576  1
  Ti  Ti39  1  0.851186  0.589362  0.410167  1
  Ti  Ti40  1  0.336943  0.120411  0.236782  1
  Ti  Ti41  1  0.839141  0.121044  0.234273  1
  Ti  Ti42  1  0.342367  0.623879  0.234791  1
  Ti  Ti43  1  0.837720  0.622525  0.233355  1
  Ti  Ti44  1  0.333345  0.125010  0.077671  1
  Ti  Ti45  1  0.833333  0.125010  0.077670  1
  Ti  Ti46  1  0.333321  0.625002  0.077674  1
  Ti  Ti47  1  0.833327  0.625008  0.077679  1
  Ti  Ti48  1  0.374983  0.375006  0.823837  1
  Ti  Ti49  1  0.874998  0.374981  0.823792  1
  Ti  Ti50  1  0.375014  0.874995  0.823847  1
  Ti  Ti51  1  0.875006  0.874959  0.823784  1
  Ti  Ti52  1  0.125018  0.124993  0.823837  1
  Ti  Ti53  1  0.625005  0.125019  0.823792  1
  Ti  Ti54  1  0.124988  0.625003  0.823846  1
  Ti  Ti55  1  0.624998  0.625040  0.823784  1
  Ti  Ti56  1  0.124978  0.374988  0.910110  1
  Ti  Ti57  1  0.625014  0.375007  0.910086  1
  Ti  Ti58  1  0.124987  0.874991  0.910115  1
  Ti  Ti59  1  0.625012  0.874985  0.910081  1
  Ti  Ti60  1  0.375025  0.125013  0.910110  1
  Ti  Ti61  1  0.874988  0.124995  0.910086  1
  Ti  Ti62  1  0.375016  0.625010  0.910115  1
  Ti  Ti63  1  0.874991  0.625018  0.910080  1
  Ti  Ti64  1  0.402601  0.379566  0.645995  1
  Ti  Ti65  1  0.881090  0.346022  0.654643  1
  Ti  Ti66  1  0.370272  0.869462  0.672076  1
  Ti  Ti67  1  0.888004  0.869092  0.659485  1
  Ti  Ti68  1  0.097399  0.120432  0.645995  1
  Ti  Ti69  1  0.618910  0.153976  0.654643  1
  Ti  Ti70  1  0.129727  0.630536  0.672076  1
  Ti  Ti71  1  0.611995  0.630906  0.659485  1
  Ti  Ti72  1  0.148663  0.379023  0.575490  1
  Ti  Ti73  1  0.659398  0.414446  0.564089  1
  Ti  Ti74  1  0.148147  0.870636  0.576252  1
  Ti  Ti75  1  0.565446  0.927710  0.579557  1
  Ti  Ti76  1  0.351337  0.120977  0.575490  1
  Ti  Ti77  1  0.840602  0.085554  0.564089  1
  Ti  Ti78  1  0.351853  0.629363  0.576252  1
  Ti  Ti79  1  0.934554  0.572290  0.579557  1
  Ti  Ti80  1  0.384625  0.371939  0.489252  1
  Ti  Ti81  1  0.900802  0.338470  0.491750  1
  Ti  Ti82  1  0.375684  0.860802  0.478827  1
  Ti  Ti83  1  0.947762  0.887344  0.470760  1
  Ti  Ti84  1  0.115375  0.128061  0.489252  1
  Ti  Ti85  1  0.599198  0.161530  0.491750  1
  Ti  Ti86  1  0.124316  0.639197  0.478827  1
  Ti  Ti87  1  0.552238  0.612656  0.470760  1
  Ti  Ti88  1  0.125095  0.874990  0.737607  1
  Ti  Ti89  1  0.624982  0.875041  0.737558  1
  Ti  Ti90  1  0.374900  0.624999  0.737608  1
  Ti  Ti91  1  0.875014  0.624949  0.737558  1
  Ti  Ti92  1  0.125069  0.374896  0.737572  1
  Ti  Ti93  1  0.624915  0.375268  0.737568  1
  Ti  Ti94  1  0.374926  0.125095  0.737571  1
  Ti  Ti95  1  0.875081  0.124722  0.737571  1
  Sn  Sn96  1  0.750000  0.750000  0.532600  1
