# generated using pymatgen
data_Ti96Sn
_symmetry_space_group_name_H-M   'P 1'
_cell_length_a   9.51302000
_cell_length_b   9.35086000
_cell_length_c   18.54723000
_cell_angle_alpha   90.00000000
_cell_angle_beta   90.00000000
_cell_angle_gamma   90.00000000
_symmetry_Int_Tables_number   1
_chemical_formula_structural   Ti96Sn
_chemical_formula_sum   'Ti96 Sn1'
_cell_volume   1649.86732743
_cell_formula_units_Z   1
loop_
 _symmetry_equiv_pos_site_id
 _symmetry_equiv_pos_as_xyz
  1  'x, y, z'
loop_
 _atom_site_type_symbol
 _atom_site_label
 _atom_site_symmetry_multiplicity
 _atom_site_fract_x
 _atom_site_fract_y
 _atom_site_fract_z
 _atom_site_occupancy
  Ti  Ti0  1  0.134242  0.387850  0.404055  1
  Ti  Ti1  1  0.650709  0.360829  0.397088  1
  Ti  Ti2  1  0.168313  0.883084  0.402436  1
  Ti  Ti3  1  0.624752  0.944993  0.399620  1
  Ti  Ti4  1  0.163448  0.377786  0.233085  1
  Ti  Ti5  1  0.658839  0.382476  0.233676  1
  Ti  Ti6  1  0.159736  0.876456  0.235549  1
  Ti  Ti7  1  0.659590  0.876741  0.235197  1
  Ti  Ti8  1  0.166628  0.374943  0.077616  1
  Ti  Ti9  1  0.666704  0.374977  0.077599  1
  Ti  Ti10  1  0.166712  0.875019  0.077572  1
  Ti  Ti11  1  0.666667  0.875012  0.077620  1
  Ti  Ti12  1  0.391815  0.370401  0.322255  1
  Ti  Ti13  1  0.913013  0.358876  0.307098  1
  Ti  Ti14  1  0.408565  0.867493  0.315241  1
  Ti  Ti15  1  0.912189  0.878344  0.326594  1
  Ti  Ti16  1  0.416611  0.374985  0.155234  1
  Ti  Ti17  1  0.916726  0.374732  0.155259  1
  Ti  Ti18  1  0.416774  0.875036  0.155235  1
  Ti  Ti19  1  0.916745  0.874890  0.155157  1
  Ti  Ti20  1  0.416680  0.374992  -0.000009  1
  Ti  Ti21  1  0.916652  0.374971  -0.000000  1
  Ti  Ti22  1  0.416705  0.875017  -0.000011  1
  Ti  Ti23  1  0.916640  0.874999  -0.000022  1
  Ti  Ti24  1  0.108185  0.129600  0.322254  1
  Ti  Ti25  1  0.586986  0.141125  0.307097  1
  Ti  Ti26  1  0.091435  0.632508  0.315240  1
  Ti  Ti27  1  0.587811  0.621656  0.326593  1
  Ti  Ti28  1  0.083392  0.125028  0.155233  1
  Ti  Ti29  1  0.583272  0.125279  0.155256  1
  Ti  Ti30  1  0.083227  0.624977  0.155236  1
  Ti  Ti31  1  0.583251  0.625128  0.155156  1
  Ti  Ti32  1  0.083323  0.125014  -0.000009  1
  Ti  Ti33  1  0.583346  0.125033  -0.000000  1
  Ti  Ti34  1  0.083300  0.624990  -0.000009  1
  Ti  Ti35  1  0.583359  0.625010  -0.000021  1
  Ti  Ti36  1  0.365757  0.112150  0.404055  1
  Ti  Ti37  1  0.849289  0.139171  0.397088  1
  Ti  Ti38  1  0.331686  0.616916  0.402436  1
  Ti  Ti39  1  0.875246  0.555007  0.399620  1
  Ti  Ti40  1  0.336552  0.122217  0.233085  1
  Ti  Ti41  1  0.841160  0.117527  0.233676  1
  Ti  Ti42  1  0.340263  0.623547  0.235549  1
  Ti  Ti43  1  0.840408  0.623262  0.235197  1
  Ti  Ti44  1  0.333371  0.125068  0.077615  1
  Ti  Ti45  1  0.833296  0.125035  0.077598  1
  Ti  Ti46  1  0.333287  0.624995  0.077573  1
  Ti  Ti47  1  0.833333  0.624999  0.077620  1
  Ti  Ti48  1  0.374987  0.374986  0.823919  1
  Ti  Ti49  1  0.875034  0.374953  0.823816  1
  Ti  Ti50  1  0.375050  0.875013  0.823888  1
  Ti  Ti51  1  0.874955  0.874971  0.823844  1
  Ti  Ti52  1  0.125018  0.125005  0.823918  1
  Ti  Ti53  1  0.624973  0.125042  0.823816  1
  Ti  Ti54  1  0.124953  0.624980  0.823889  1
  Ti  Ti55  1  0.625049  0.625024  0.823846  1
  Ti  Ti56  1  0.124942  0.375002  0.910155  1
  Ti  Ti57  1  0.625048  0.375008  0.910124  1
  Ti  Ti58  1  0.124944  0.874977  0.910137  1
  Ti  Ti59  1  0.625027  0.874992  0.910091  1
  Ti  Ti60  1  0.375063  0.124995  0.910155  1
  Ti  Ti61  1  0.874956  0.124986  0.910123  1
  Ti  Ti62  1  0.375062  0.625019  0.910138  1
  Ti  Ti63  1  0.874978  0.625010  0.910092  1
  Ti  Ti64  1  0.388381  0.367174  0.646181  1
  Ti  Ti65  1  0.887186  0.364199  0.669037  1
  Ti  Ti66  1  0.383314  0.861396  0.664771  1
  Ti  Ti67  1  0.891235  0.864583  0.648751  1
  Ti  Ti68  1  0.111618  0.132822  0.646180  1
  Ti  Ti69  1  0.612812  0.135797  0.669036  1
  Ti  Ti70  1  0.116684  0.638597  0.664770  1
  Ti  Ti71  1  0.608763  0.635413  0.648751  1
  Ti  Ti72  1  0.134419  0.395467  0.575964  1
  Ti  Ti73  1  0.651285  0.377158  0.581863  1
  Ti  Ti74  1  0.156127  0.880537  0.572772  1
  Ti  Ti75  1  0.626243  0.909592  0.582949  1
  Ti  Ti76  1  0.365580  0.104532  0.575964  1
  Ti  Ti77  1  0.848714  0.122841  0.581863  1
  Ti  Ti78  1  0.343872  0.619462  0.572772  1
  Ti  Ti79  1  0.873756  0.590406  0.582950  1
  Ti  Ti80  1  0.371593  0.362587  0.488878  1
  Ti  Ti81  1  0.904410  0.342386  0.495717  1
  Ti  Ti82  1  0.412123  0.850813  0.487382  1
  Ti  Ti83  1  0.932206  0.929330  0.486015  1
  Ti  Ti84  1  0.128407  0.137413  0.488878  1
  Ti  Ti85  1  0.595590  0.157613  0.495717  1
  Ti  Ti86  1  0.087877  0.649186  0.487382  1
  Ti  Ti87  1  0.567794  0.570670  0.486015  1
  Ti  Ti88  1  0.125135  0.874914  0.737750  1
  Ti  Ti89  1  0.624871  0.875166  0.737598  1
  Ti  Ti90  1  0.374853  0.625060  0.737752  1
  Ti  Ti91  1  0.875124  0.624819  0.737600  1
  Ti  Ti92  1  0.125001  0.374914  0.737673  1
  Ti  Ti93  1  0.625071  0.374871  0.737684  1
  Ti  Ti94  1  0.374990  0.125068  0.737671  1
  Ti  Ti95  1  0.874921  0.125107  0.737682  1
  Sn  Sn96  1  0.750000  0.750000  0.454946  1
