# generated using pymatgen
data_Ti
_symmetry_space_group_name_H-M   'P 1'
_cell_length_a   9.51302000
_cell_length_b   9.35086000
_cell_length_c   18.54723000
_cell_angle_alpha   90.00000000
_cell_angle_beta   90.00000000
_cell_angle_gamma   90.00000000
_symmetry_Int_Tables_number   1
_chemical_formula_structural   Ti
_chemical_formula_sum   Ti97
_cell_volume   1649.86732743
_cell_formula_units_Z   97
loop_
 _symmetry_equiv_pos_site_id
 _symmetry_equiv_pos_as_xyz
  1  'x, y, z'
loop_
 _atom_site_type_symbol
 _atom_site_label
 _atom_site_symmetry_multiplicity
 _atom_site_fract_x
 _atom_site_fract_y
 _atom_site_fract_z
 _atom_site_occupancy
  Ti  Ti0  1  0.143836  0.371426  0.405136  1
  Ti  Ti1  1  0.655991  0.350398  0.412818  1
  Ti  Ti2  1  0.154690  0.859146  0.409888  1
  Ti  Ti3  1  0.670342  0.895552  0.406755  1
  Ti  Ti4  1  0.151732  0.373676  0.239535  1
  Ti  Ti5  1  0.662106  0.361838  0.230777  1
  Ti  Ti6  1  0.161110  0.869220  0.233313  1
  Ti  Ti7  1  0.666409  0.883396  0.240549  1
  Ti  Ti8  1  0.166695  0.375039  0.077486  1
  Ti  Ti9  1  0.666726  0.374857  0.077467  1
  Ti  Ti10  1  0.166786  0.875071  0.077587  1
  Ti  Ti11  1  0.666592  0.874963  0.077605  1
  Ti  Ti12  1  0.406100  0.370041  0.320914  1
  Ti  Ti13  1  0.897390  0.375196  0.322241  1
  Ti  Ti14  1  0.365169  0.936141  0.323145  1
  Ti  Ti15  1  0.915206  0.875652  0.320062  1
  Ti  Ti16  1  0.416835  0.374979  0.155063  1
  Ti  Ti17  1  0.916717  0.374735  0.155040  1
  Ti  Ti18  1  0.416465  0.875020  0.155494  1
  Ti  Ti19  1  0.916767  0.875196  0.155068  1
  Ti  Ti20  1  0.416703  0.375021  -0.000098  1
  Ti  Ti21  1  0.916636  0.374964  -0.000122  1
  Ti  Ti22  1  0.416669  0.874987  0.000004  1
  Ti  Ti23  1  0.916668  0.874996  -0.000090  1
  Ti  Ti24  1  0.102610  0.124805  0.322240  1
  Ti  Ti25  1  0.593900  0.129959  0.320913  1
  Ti  Ti26  1  0.084794  0.624349  0.320061  1
  Ti  Ti27  1  0.634831  0.563860  0.323144  1
  Ti  Ti28  1  0.083281  0.125282  0.155036  1
  Ti  Ti29  1  0.583166  0.125035  0.155062  1
  Ti  Ti30  1  0.083232  0.624820  0.155071  1
  Ti  Ti31  1  0.583537  0.624978  0.155495  1
  Ti  Ti32  1  0.083365  0.125038  -0.000124  1
  Ti  Ti33  1  0.583297  0.124985  -0.000099  1
  Ti  Ti34  1  0.083331  0.625005  -0.000088  1
  Ti  Ti35  1  0.583333  0.625007  0.000005  1
  Ti  Ti36  1  0.344008  0.149602  0.412818  1
  Ti  Ti37  1  0.856163  0.128574  0.405136  1
  Ti  Ti38  1  0.329657  0.604448  0.406755  1
  Ti  Ti39  1  0.845309  0.640854  0.409888  1
  Ti  Ti40  1  0.337893  0.138163  0.230776  1
  Ti  Ti41  1  0.848267  0.126325  0.239535  1
  Ti  Ti42  1  0.333590  0.616606  0.240550  1
  Ti  Ti43  1  0.838888  0.630783  0.233313  1
  Ti  Ti44  1  0.333273  0.125153  0.077465  1
  Ti  Ti45  1  0.833304  0.124971  0.077485  1
  Ti  Ti46  1  0.333406  0.625043  0.077605  1
  Ti  Ti47  1  0.833213  0.624935  0.077588  1
  Ti  Ti48  1  0.375032  0.375033  0.823725  1
  Ti  Ti49  1  0.874940  0.375008  0.823743  1
  Ti  Ti50  1  0.375032  0.874984  0.823675  1
  Ti  Ti51  1  0.874967  0.874981  0.823714  1
  Ti  Ti52  1  0.125061  0.124987  0.823743  1
  Ti  Ti53  1  0.624971  0.124966  0.823725  1
  Ti  Ti54  1  0.125035  0.625013  0.823715  1
  Ti  Ti55  1  0.624970  0.625011  0.823676  1
  Ti  Ti56  1  0.124990  0.375031  0.910048  1
  Ti  Ti57  1  0.625003  0.375007  0.910054  1
  Ti  Ti58  1  0.125021  0.874989  0.910074  1
  Ti  Ti59  1  0.624969  0.874969  0.910085  1
  Ti  Ti60  1  0.375000  0.124991  0.910054  1
  Ti  Ti61  1  0.875013  0.124967  0.910046  1
  Ti  Ti62  1  0.375032  0.625020  0.910086  1
  Ti  Ti63  1  0.874983  0.625003  0.910075  1
  Ti  Ti64  1  0.395559  0.391316  0.652734  1
  Ti  Ti65  1  0.901498  0.379955  0.652484  1
  Ti  Ti66  1  0.395978  0.881148  0.652624  1
  Ti  Ti67  1  0.889726  0.883337  0.657742  1
  Ti  Ti68  1  0.098502  0.120044  0.652484  1
  Ti  Ti69  1  0.604440  0.108682  0.652734  1
  Ti  Ti70  1  0.110273  0.616660  0.657742  1
  Ti  Ti71  1  0.604021  0.618850  0.652624  1
  Ti  Ti72  1  0.152464  0.371872  0.570845  1
  Ti  Ti73  1  0.652561  0.360361  0.580812  1
  Ti  Ti74  1  0.144251  0.865285  0.578500  1
  Ti  Ti75  1  0.651088  0.859940  0.566012  1
  Ti  Ti76  1  0.347439  0.139639  0.580812  1
  Ti  Ti77  1  0.847536  0.128127  0.570845  1
  Ti  Ti78  1  0.348912  0.640060  0.566012  1
  Ti  Ti79  1  0.855749  0.634714  0.578500  1
  Ti  Ti80  1  0.404687  0.380510  0.495418  1
  Ti  Ti81  1  0.899341  0.377578  0.490815  1
  Ti  Ti82  1  0.389786  0.901120  0.496370  1
  Ti  Ti83  1  0.910960  0.881225  0.491201  1
  Ti  Ti84  1  0.100659  0.122422  0.490815  1
  Ti  Ti85  1  0.595313  0.119490  0.495418  1
  Ti  Ti86  1  0.089040  0.618775  0.491201  1
  Ti  Ti87  1  0.610213  0.598880  0.496370  1
  Ti  Ti88  1  0.125050  0.875065  0.737481  1
  Ti  Ti89  1  0.624992  0.875003  0.737450  1
  Ti  Ti90  1  0.375005  0.624987  0.737451  1
  Ti  Ti91  1  0.874946  0.624925  0.737483  1
  Ti  Ti92  1  0.124962  0.374976  0.737507  1
  Ti  Ti93  1  0.625002  0.374975  0.737473  1
  Ti  Ti94  1  0.374994  0.125016  0.737473  1
  Ti  Ti95  1  0.875033  0.125013  0.737506  1
  Ti  Ti96  1  0.500000  0.750000  0.350315  1
