# generated using pymatgen
data_Ti96Mo
_symmetry_space_group_name_H-M   'P 1'
_cell_length_a   9.51302000
_cell_length_b   9.35086000
_cell_length_c   18.54723000
_cell_angle_alpha   90.00000000
_cell_angle_beta   90.00000000
_cell_angle_gamma   90.00000000
_symmetry_Int_Tables_number   1
_chemical_formula_structural   Ti96Mo
_chemical_formula_sum   'Ti96 Mo1'
_cell_volume   1649.86732743
_cell_formula_units_Z   1
loop_
 _symmetry_equiv_pos_site_id
 _symmetry_equiv_pos_as_xyz
  1  'x, y, z'
loop_
 _atom_site_type_symbol
 _atom_site_label
 _atom_site_symmetry_multiplicity
 _atom_site_fract_x
 _atom_site_fract_y
 _atom_site_fract_z
 _atom_site_occupancy
  Ti  Ti0  1  0.136416  0.364162  0.406813  1
  Ti  Ti1  1  0.652627  0.352130  0.412208  1
  Ti  Ti2  1  0.166650  0.856407  0.405208  1
  Ti  Ti3  1  0.674936  0.914422  0.403923  1
  Ti  Ti4  1  0.152597  0.375119  0.238665  1
  Ti  Ti5  1  0.666238  0.364845  0.228253  1
  Ti  Ti6  1  0.160323  0.868619  0.235482  1
  Ti  Ti7  1  0.662626  0.873965  0.245639  1
  Ti  Ti8  1  0.166658  0.375088  0.077534  1
  Ti  Ti9  1  0.666724  0.375118  0.077525  1
  Ti  Ti10  1  0.166727  0.874930  0.077599  1
  Ti  Ti11  1  0.666655  0.874968  0.077568  1
  Ti  Ti12  1  0.400921  0.361320  0.315757  1
  Ti  Ti13  1  0.895529  0.377024  0.321368  1
  Ti  Ti14  1  0.388698  0.930879  0.318340  1
  Ti  Ti15  1  0.919350  0.879919  0.321581  1
  Ti  Ti16  1  0.416805  0.375239  0.155127  1
  Ti  Ti17  1  0.916645  0.375052  0.155120  1
  Ti  Ti18  1  0.416480  0.874923  0.155393  1
  Ti  Ti19  1  0.916903  0.875011  0.155102  1
  Ti  Ti20  1  0.416700  0.375055  -0.000067  1
  Ti  Ti21  1  0.916626  0.375033  -0.000087  1
  Ti  Ti22  1  0.416660  0.874950  -0.000020  1
  Ti  Ti23  1  0.916682  0.874981  -0.000094  1
  Ti  Ti24  1  0.104471  0.122977  0.321367  1
  Ti  Ti25  1  0.599079  0.138681  0.315756  1
  Ti  Ti26  1  0.080650  0.620082  0.321580  1
  Ti  Ti27  1  0.611302  0.569122  0.318338  1
  Ti  Ti28  1  0.083357  0.124963  0.155121  1
  Ti  Ti29  1  0.583193  0.124777  0.155129  1
  Ti  Ti30  1  0.083097  0.625005  0.155102  1
  Ti  Ti31  1  0.583520  0.625081  0.155391  1
  Ti  Ti32  1  0.083375  0.124967  -0.000086  1
  Ti  Ti33  1  0.583300  0.124949  -0.000065  1
  Ti  Ti34  1  0.083319  0.625024  -0.000096  1
  Ti  Ti35  1  0.583340  0.625049  -0.000022  1
  Ti  Ti36  1  0.347372  0.147870  0.412208  1
  Ti  Ti37  1  0.863583  0.135838  0.406813  1
  Ti  Ti38  1  0.325063  0.585578  0.403923  1
  Ti  Ti39  1  0.833349  0.643593  0.405208  1
  Ti  Ti40  1  0.333762  0.135158  0.228253  1
  Ti  Ti41  1  0.847402  0.124885  0.238665  1
  Ti  Ti42  1  0.337373  0.626037  0.245639  1
  Ti  Ti43  1  0.839676  0.631384  0.235481  1
  Ti  Ti44  1  0.333276  0.124891  0.077527  1
  Ti  Ti45  1  0.833341  0.124922  0.077535  1
  Ti  Ti46  1  0.333344  0.625042  0.077567  1
  Ti  Ti47  1  0.833272  0.625078  0.077598  1
  Ti  Ti48  1  0.375029  0.375038  0.823777  1
  Ti  Ti49  1  0.874927  0.375028  0.823803  1
  Ti  Ti50  1  0.375054  0.874954  0.823730  1
  Ti  Ti51  1  0.874942  0.874971  0.823760  1
  Ti  Ti52  1  0.125076  0.124962  0.823804  1
  Ti  Ti53  1  0.624973  0.124958  0.823779  1
  Ti  Ti54  1  0.125059  0.625023  0.823759  1
  Ti  Ti55  1  0.624950  0.625040  0.823729  1
  Ti  Ti56  1  0.124983  0.375023  0.910063  1
  Ti  Ti57  1  0.624998  0.375027  0.910072  1
  Ti  Ti58  1  0.125034  0.874971  0.910064  1
  Ti  Ti59  1  0.624973  0.874981  0.910072  1
  Ti  Ti60  1  0.375006  0.124967  0.910073  1
  Ti  Ti61  1  0.875019  0.124972  0.910064  1
  Ti  Ti62  1  0.375028  0.625009  0.910070  1
  Ti  Ti63  1  0.874968  0.625024  0.910063  1
  Ti  Ti64  1  0.391852  0.392662  0.654241  1
  Ti  Ti65  1  0.901954  0.380881  0.651724  1
  Ti  Ti66  1  0.395448  0.878315  0.653572  1
  Ti  Ti67  1  0.888666  0.885051  0.657168  1
  Ti  Ti68  1  0.098045  0.119116  0.651725  1
  Ti  Ti69  1  0.608147  0.107335  0.654241  1
  Ti  Ti70  1  0.111333  0.614946  0.657169  1
  Ti  Ti71  1  0.604551  0.621683  0.653572  1
  Ti  Ti72  1  0.149491  0.371372  0.567752  1
  Ti  Ti73  1  0.651621  0.360615  0.584521  1
  Ti  Ti74  1  0.142804  0.862034  0.578417  1
  Ti  Ti75  1  0.652255  0.859560  0.564207  1
  Ti  Ti76  1  0.348379  0.139384  0.584521  1
  Ti  Ti77  1  0.850509  0.128627  0.567752  1
  Ti  Ti78  1  0.347745  0.640440  0.564207  1
  Ti  Ti79  1  0.857195  0.637966  0.578417  1
  Ti  Ti80  1  0.404869  0.375056  0.497372  1
  Ti  Ti81  1  0.893810  0.384522  0.491408  1
  Ti  Ti82  1  0.389761  0.906210  0.497977  1
  Ti  Ti83  1  0.914570  0.879755  0.487000  1
  Ti  Ti84  1  0.106190  0.115478  0.491408  1
  Ti  Ti85  1  0.595131  0.124943  0.497372  1
  Ti  Ti86  1  0.085430  0.620244  0.487000  1
  Ti  Ti87  1  0.610238  0.593790  0.497977  1
  Ti  Ti88  1  0.125124  0.874976  0.737518  1
  Ti  Ti89  1  0.625042  0.875017  0.737460  1
  Ti  Ti90  1  0.374955  0.624973  0.737459  1
  Ti  Ti91  1  0.874871  0.625012  0.737518  1
  Ti  Ti92  1  0.124985  0.375036  0.737557  1
  Ti  Ti93  1  0.625014  0.375001  0.737494  1
  Ti  Ti94  1  0.374983  0.124987  0.737494  1
  Ti  Ti95  1  0.875009  0.124949  0.737558  1
  Mo  Mo96  1  0.500000  0.750000  0.373841  1
