# generated using pymatgen
data_Ti96Mo
_symmetry_space_group_name_H-M   'P 1'
_cell_length_a   9.51302000
_cell_length_b   9.35086000
_cell_length_c   18.54723000
_cell_angle_alpha   90.00000000
_cell_angle_beta   90.00000000
_cell_angle_gamma   90.00000000
_symmetry_Int_Tables_number   1
_chemical_formula_structural   Ti96Mo
_chemical_formula_sum   'Ti96 Mo1'
_cell_volume   1649.86732743
_cell_formula_units_Z   1
loop_
 _symmetry_equiv_pos_site_id
 _symmetry_equiv_pos_as_xyz
  1  'x, y, z'
loop_
 _atom_site_type_symbol
 _atom_site_label
 _atom_site_symmetry_multiplicity
 _atom_site_fract_x
 _atom_site_fract_y
 _atom_site_fract_z
 _atom_site_occupancy
  Ti  Ti0  1  0.144997  0.377949  0.399613  1
  Ti  Ti1  1  0.650187  0.372955  0.398555  1
  Ti  Ti2  1  0.164654  0.887003  0.395059  1
  Ti  Ti3  1  0.650861  0.908530  0.406118  1
  Ti  Ti4  1  0.162641  0.378139  0.236842  1
  Ti  Ti5  1  0.660512  0.379468  0.234361  1
  Ti  Ti6  1  0.157500  0.875751  0.235763  1
  Ti  Ti7  1  0.660981  0.875372  0.233330  1
  Ti  Ti8  1  0.166659  0.374988  0.077668  1
  Ti  Ti9  1  0.666665  0.374975  0.077673  1
  Ti  Ti10  1  0.166676  0.875020  0.077678  1
  Ti  Ti11  1  0.666681  0.875021  0.077700  1
  Ti  Ti12  1  0.410285  0.373111  0.317140  1
  Ti  Ti13  1  0.907032  0.372690  0.312768  1
  Ti  Ti14  1  0.411764  0.871214  0.317196  1
  Ti  Ti15  1  0.898220  0.865831  0.324219  1
  Ti  Ti16  1  0.416653  0.374964  0.155293  1
  Ti  Ti17  1  0.916651  0.374967  0.155305  1
  Ti  Ti18  1  0.416722  0.875054  0.155320  1
  Ti  Ti19  1  0.916701  0.875055  0.155340  1
  Ti  Ti20  1  0.416678  0.375014  -0.000010  1
  Ti  Ti21  1  0.916651  0.375009  -0.000002  1
  Ti  Ti22  1  0.416695  0.875001  -0.000005  1
  Ti  Ti23  1  0.916649  0.875003  0.000003  1
  Ti  Ti24  1  0.089715  0.126890  0.317139  1
  Ti  Ti25  1  0.592968  0.127311  0.312767  1
  Ti  Ti26  1  0.088236  0.628786  0.317195  1
  Ti  Ti27  1  0.601780  0.634169  0.324218  1
  Ti  Ti28  1  0.083348  0.125043  0.155293  1
  Ti  Ti29  1  0.583348  0.125039  0.155305  1
  Ti  Ti30  1  0.083279  0.624951  0.155321  1
  Ti  Ti31  1  0.583299  0.624950  0.155341  1
  Ti  Ti32  1  0.083324  0.124993  -0.000011  1
  Ti  Ti33  1  0.583348  0.124998  -0.000003  1
  Ti  Ti34  1  0.083305  0.625005  -0.000005  1
  Ti  Ti35  1  0.583351  0.625003  0.000003  1
  Ti  Ti36  1  0.355002  0.122051  0.399613  1
  Ti  Ti37  1  0.849812  0.127045  0.398555  1
  Ti  Ti38  1  0.335345  0.612997  0.395059  1
  Ti  Ti39  1  0.849138  0.591470  0.406118  1
  Ti  Ti40  1  0.337358  0.121862  0.236842  1
  Ti  Ti41  1  0.839487  0.120532  0.234361  1
  Ti  Ti42  1  0.342499  0.624251  0.235763  1
  Ti  Ti43  1  0.839018  0.624629  0.233330  1
  Ti  Ti44  1  0.333340  0.125018  0.077667  1
  Ti  Ti45  1  0.833334  0.125031  0.077672  1
  Ti  Ti46  1  0.333323  0.624986  0.077678  1
  Ti  Ti47  1  0.833318  0.624984  0.077700  1
  Ti  Ti48  1  0.374964  0.375029  0.823856  1
  Ti  Ti49  1  0.875012  0.374956  0.823836  1
  Ti  Ti50  1  0.375026  0.875000  0.823858  1
  Ti  Ti51  1  0.874921  0.874952  0.823780  1
  Ti  Ti52  1  0.125039  0.124969  0.823855  1
  Ti  Ti53  1  0.624992  0.125042  0.823835  1
  Ti  Ti54  1  0.124975  0.624997  0.823858  1
  Ti  Ti55  1  0.625084  0.625046  0.823780  1
  Ti  Ti56  1  0.124987  0.374977  0.910150  1
  Ti  Ti57  1  0.625034  0.375020  0.910137  1
  Ti  Ti58  1  0.124991  0.874995  0.910151  1
  Ti  Ti59  1  0.625037  0.874982  0.910137  1
  Ti  Ti60  1  0.375017  0.125025  0.910149  1
  Ti  Ti61  1  0.874969  0.124979  0.910136  1
  Ti  Ti62  1  0.375013  0.625003  0.910151  1
  Ti  Ti63  1  0.874966  0.625019  0.910135  1
  Ti  Ti64  1  0.393421  0.371917  0.646228  1
  Ti  Ti65  1  0.886234  0.352492  0.659482  1
  Ti  Ti66  1  0.376517  0.866456  0.667993  1
  Ti  Ti67  1  0.890486  0.867327  0.652123  1
  Ti  Ti68  1  0.106578  0.128081  0.646228  1
  Ti  Ti69  1  0.613765  0.147505  0.659481  1
  Ti  Ti70  1  0.123481  0.633540  0.667993  1
  Ti  Ti71  1  0.609513  0.632671  0.652123  1
  Ti  Ti72  1  0.142142  0.387749  0.574238  1
  Ti  Ti73  1  0.656383  0.392218  0.570808  1
  Ti  Ti74  1  0.152960  0.876052  0.573298  1
  Ti  Ti75  1  0.595810  0.914945  0.579193  1
  Ti  Ti76  1  0.357858  0.112251  0.574238  1
  Ti  Ti77  1  0.843616  0.107782  0.570809  1
  Ti  Ti78  1  0.347040  0.623948  0.573299  1
  Ti  Ti79  1  0.904190  0.585054  0.579193  1
  Ti  Ti80  1  0.383752  0.365461  0.488920  1
  Ti  Ti81  1  0.901102  0.346033  0.489250  1
  Ti  Ti82  1  0.392437  0.856747  0.480562  1
  Ti  Ti83  1  -0.068116  -0.100333  0.479294  1
  Ti  Ti84  1  0.116248  0.134539  0.488920  1
  Ti  Ti85  1  0.598898  0.153967  0.489250  1
  Ti  Ti86  1  0.107563  0.643252  0.480562  1
  Ti  Ti87  1  0.568116  0.600333  0.479294  1
  Ti  Ti88  1  0.125094  0.875162  0.737637  1
  Ti  Ti89  1  0.625135  0.875035  0.737597  1
  Ti  Ti90  1  0.374900  0.624824  0.737640  1
  Ti  Ti91  1  0.874858  0.624953  0.737599  1
  Ti  Ti92  1  0.125154  0.374775  0.737635  1
  Ti  Ti93  1  0.624956  0.375426  0.737649  1
  Ti  Ti94  1  0.374839  0.125214  0.737633  1
  Ti  Ti95  1  0.875037  0.124558  0.737654  1
  Mo  Mo96  1  0.750000  0.750000  0.523855  1
