# generated using pymatgen
data_Ti
_symmetry_space_group_name_H-M   'P 1'
_cell_length_a   9.51302000
_cell_length_b   9.35086000
_cell_length_c   18.54723000
_cell_angle_alpha   90.00000000
_cell_angle_beta   90.00000000
_cell_angle_gamma   90.00000000
_symmetry_Int_Tables_number   1
_chemical_formula_structural   Ti
_chemical_formula_sum   Ti97
_cell_volume   1649.86732743
_cell_formula_units_Z   97
loop_
 _symmetry_equiv_pos_site_id
 _symmetry_equiv_pos_as_xyz
  1  'x, y, z'
loop_
 _atom_site_type_symbol
 _atom_site_label
 _atom_site_symmetry_multiplicity
 _atom_site_fract_x
 _atom_site_fract_y
 _atom_site_fract_z
 _atom_site_occupancy
  Ti  Ti0  1  0.145726  0.377610  0.400576  1
  Ti  Ti1  1  0.651921  0.368711  0.395651  1
  Ti  Ti2  1  0.165116  0.883513  0.399380  1
  Ti  Ti3  1  0.646294  0.910425  0.397678  1
  Ti  Ti4  1  0.164157  0.376612  0.235884  1
  Ti  Ti5  1  0.660450  0.380854  0.235535  1
  Ti  Ti6  1  0.157471  0.874968  0.235860  1
  Ti  Ti7  1  0.659722  0.874145  0.234759  1
  Ti  Ti8  1  0.166660  0.375000  0.077679  1
  Ti  Ti9  1  0.666668  0.375004  0.077684  1
  Ti  Ti10  1  0.166672  0.875001  0.077681  1
  Ti  Ti11  1  0.666668  0.874998  0.077691  1
  Ti  Ti12  1  0.407641  0.376853  0.318247  1
  Ti  Ti13  1  0.912165  0.368032  0.310211  1
  Ti  Ti14  1  0.408142  0.873498  0.316182  1
  Ti  Ti15  1  0.901879  0.861940  0.326587  1
  Ti  Ti16  1  0.416665  0.375010  0.155340  1
  Ti  Ti17  1  0.916660  0.375022  0.155354  1
  Ti  Ti18  1  0.416694  0.874989  0.155356  1
  Ti  Ti19  1  0.916680  0.875027  0.155366  1
  Ti  Ti20  1  0.416678  0.375015  -0.000007  1
  Ti  Ti21  1  0.916656  0.375015  -0.000005  1
  Ti  Ti22  1  0.416683  0.874995  -0.000006  1
  Ti  Ti23  1  0.916653  0.874998  -0.000006  1
  Ti  Ti24  1  0.092359  0.123147  0.318246  1
  Ti  Ti25  1  0.587835  0.131968  0.310210  1
  Ti  Ti26  1  0.091858  0.626502  0.316181  1
  Ti  Ti27  1  0.598121  0.638060  0.326586  1
  Ti  Ti28  1  0.083336  0.124993  0.155340  1
  Ti  Ti29  1  0.583340  0.124980  0.155354  1
  Ti  Ti30  1  0.083306  0.625013  0.155356  1
  Ti  Ti31  1  0.583321  0.624975  0.155366  1
  Ti  Ti32  1  0.083323  0.124990  -0.000007  1
  Ti  Ti33  1  0.583344  0.124989  -0.000005  1
  Ti  Ti34  1  0.083317  0.625008  -0.000006  1
  Ti  Ti35  1  0.583347  0.625006  -0.000007  1
  Ti  Ti36  1  0.354273  0.122390  0.400576  1
  Ti  Ti37  1  0.848078  0.131289  0.395651  1
  Ti  Ti38  1  0.334883  0.616487  0.399380  1
  Ti  Ti39  1  0.853705  0.589575  0.397678  1
  Ti  Ti40  1  0.335842  0.123388  0.235884  1
  Ti  Ti41  1  0.839549  0.119146  0.235535  1
  Ti  Ti42  1  0.342528  0.625032  0.235860  1
  Ti  Ti43  1  0.840277  0.625856  0.234759  1
  Ti  Ti44  1  0.333339  0.125003  0.077679  1
  Ti  Ti45  1  0.833331  0.124999  0.077684  1
  Ti  Ti46  1  0.333327  0.625002  0.077681  1
  Ti  Ti47  1  0.833331  0.625004  0.077691  1
  Ti  Ti48  1  0.374989  0.375004  0.823801  1
  Ti  Ti49  1  0.875010  0.374981  0.823787  1
  Ti  Ti50  1  0.375009  0.875014  0.823819  1
  Ti  Ti51  1  0.874968  0.874976  0.823776  1
  Ti  Ti52  1  0.125013  0.124996  0.823801  1
  Ti  Ti53  1  0.624993  0.125018  0.823787  1
  Ti  Ti54  1  0.124992  0.624984  0.823819  1
  Ti  Ti55  1  0.625035  0.625022  0.823776  1
  Ti  Ti56  1  0.124992  0.374990  0.910118  1
  Ti  Ti57  1  0.625018  0.375010  0.910111  1
  Ti  Ti58  1  0.124994  0.875000  0.910124  1
  Ti  Ti59  1  0.625017  0.874993  0.910115  1
  Ti  Ti60  1  0.375010  0.125012  0.910117  1
  Ti  Ti61  1  0.874984  0.124991  0.910110  1
  Ti  Ti62  1  0.375008  0.624999  0.910124  1
  Ti  Ti63  1  0.874985  0.625007  0.910114  1
  Ti  Ti64  1  0.393390  0.371011  0.645587  1
  Ti  Ti65  1  0.888844  0.357615  0.662864  1
  Ti  Ti66  1  0.379688  0.863671  0.665658  1
  Ti  Ti67  1  0.893036  0.864668  0.649358  1
  Ti  Ti68  1  0.106609  0.128988  0.645587  1
  Ti  Ti69  1  0.611155  0.142384  0.662864  1
  Ti  Ti70  1  0.120311  0.636327  0.665658  1
  Ti  Ti71  1  0.606963  0.635331  0.649358  1
  Ti  Ti72  1  0.140618  0.390618  0.573226  1
  Ti  Ti73  1  0.655362  0.383131  0.575351  1
  Ti  Ti74  1  0.155105  0.876224  0.570397  1
  Ti  Ti75  1  0.610530  0.913327  0.581623  1
  Ti  Ti76  1  0.359381  0.109381  0.573226  1
  Ti  Ti77  1  0.844638  0.116869  0.575351  1
  Ti  Ti78  1  0.344895  0.623775  0.570397  1
  Ti  Ti79  1  0.889470  0.586672  0.581623  1
  Ti  Ti80  1  0.385537  0.362762  0.488341  1
  Ti  Ti81  1  0.900329  0.352860  0.489481  1
  Ti  Ti82  1  0.409518  0.855993  0.480828  1
  Ti  Ti83  1  0.930108  0.910350  0.481402  1
  Ti  Ti84  1  0.114463  0.137237  0.488341  1
  Ti  Ti85  1  0.599671  0.147140  0.489481  1
  Ti  Ti86  1  0.090482  0.644007  0.480828  1
  Ti  Ti87  1  0.569892  0.589650  0.481402  1
  Ti  Ti88  1  0.125065  0.875051  0.737563  1
  Ti  Ti89  1  0.625001  0.875101  0.737560  1
  Ti  Ti90  1  0.374931  0.624940  0.737565  1
  Ti  Ti91  1  0.874995  0.624890  0.737561  1
  Ti  Ti92  1  0.125072  0.374884  0.737511  1
  Ti  Ti93  1  0.625004  0.375200  0.737534  1
  Ti  Ti94  1  0.374926  0.125111  0.737511  1
  Ti  Ti95  1  0.874993  0.124792  0.737536  1
  Ti  Ti96  1  0.750000  0.750000  0.508655  1
