# generated using pymatgen
data_ZrTi96
_symmetry_space_group_name_H-M   'P 1'
_cell_length_a   9.51302000
_cell_length_b   9.35086000
_cell_length_c   18.54723000
_cell_angle_alpha   90.00000000
_cell_angle_beta   90.00000000
_cell_angle_gamma   90.00000000
_symmetry_Int_Tables_number   1
_chemical_formula_structural   ZrTi96
_chemical_formula_sum   'Zr1 Ti96'
_cell_volume   1649.86732743
_cell_formula_units_Z   1
loop_
 _symmetry_equiv_pos_site_id
 _symmetry_equiv_pos_as_xyz
  1  'x, y, z'
loop_
 _atom_site_type_symbol
 _atom_site_label
 _atom_site_symmetry_multiplicity
 _atom_site_fract_x
 _atom_site_fract_y
 _atom_site_fract_z
 _atom_site_occupancy
  Ti  Ti0  1  0.148249  0.380308  0.403968  1
  Ti  Ti1  1  0.646651  0.333638  0.408262  1
  Ti  Ti2  1  0.129821  0.853025  0.414982  1
  Ti  Ti3  1  0.672903  0.876984  0.411078  1
  Ti  Ti4  1  0.151442  0.367082  0.240178  1
  Ti  Ti5  1  0.651069  0.363175  0.238486  1
  Ti  Ti6  1  0.159639  0.866909  0.231807  1
  Ti  Ti7  1  0.678633  0.894220  0.231021  1
  Ti  Ti8  1  0.166710  0.375117  0.077433  1
  Ti  Ti9  1  0.666733  0.374990  0.077364  1
  Ti  Ti10  1  0.166744  0.875001  0.077432  1
  Ti  Ti11  1  0.666576  0.874923  0.077485  1
  Ti  Ti12  1  0.411547  0.393947  0.324723  1
  Ti  Ti13  1  0.900331  0.372666  0.323885  1
  Ti  Ti14  1  0.334728  0.934953  0.335905  1
  Ti  Ti15  1  0.912541  0.875240  0.316914  1
  Ti  Ti16  1  0.416757  0.375256  0.154939  1
  Ti  Ti17  1  0.916814  0.374869  0.154917  1
  Ti  Ti18  1  0.416583  0.875010  0.155276  1
  Ti  Ti19  1  0.916680  0.875059  0.154863  1
  Ti  Ti20  1  0.416674  0.375047  -0.000143  1
  Ti  Ti21  1  0.916666  0.374987  -0.000177  1
  Ti  Ti22  1  0.416665  0.874969  -0.000066  1
  Ti  Ti23  1  0.916659  0.874980  -0.000179  1
  Ti  Ti24  1  0.099669  0.127336  0.323883  1
  Ti  Ti25  1  0.588453  0.106055  0.324722  1
  Ti  Ti26  1  0.087459  0.624762  0.316913  1
  Ti  Ti27  1  0.665272  0.565048  0.335904  1
  Ti  Ti28  1  0.083185  0.125157  0.154915  1
  Ti  Ti29  1  0.583242  0.124770  0.154941  1
  Ti  Ti30  1  0.083321  0.624969  0.154863  1
  Ti  Ti31  1  0.583419  0.625001  0.155275  1
  Ti  Ti32  1  0.083335  0.125015  -0.000178  1
  Ti  Ti33  1  0.583327  0.124961  -0.000142  1
  Ti  Ti34  1  0.083342  0.625025  -0.000179  1
  Ti  Ti35  1  0.583337  0.625029  -0.000068  1
  Ti  Ti36  1  0.353348  0.166363  0.408262  1
  Ti  Ti37  1  0.851750  0.119693  0.403968  1
  Ti  Ti38  1  0.327096  0.623017  0.411078  1
  Ti  Ti39  1  0.870178  0.646975  0.414982  1
  Ti  Ti40  1  0.348930  0.136830  0.238486  1
  Ti  Ti41  1  0.848557  0.132923  0.240178  1
  Ti  Ti42  1  0.321366  0.605785  0.231021  1
  Ti  Ti43  1  0.840361  0.633097  0.231807  1
  Ti  Ti44  1  0.333267  0.125029  0.077364  1
  Ti  Ti45  1  0.833289  0.124899  0.077435  1
  Ti  Ti46  1  0.333422  0.625093  0.077484  1
  Ti  Ti47  1  0.833256  0.625016  0.077431  1
  Ti  Ti48  1  0.375044  0.375090  0.823744  1
  Ti  Ti49  1  0.874929  0.374937  0.823731  1
  Ti  Ti50  1  0.375037  0.874994  0.823673  1
  Ti  Ti51  1  0.874919  0.874940  0.823712  1
  Ti  Ti52  1  0.125070  0.125046  0.823730  1
  Ti  Ti53  1  0.624963  0.124903  0.823746  1
  Ti  Ti54  1  0.125084  0.625050  0.823711  1
  Ti  Ti55  1  0.624966  0.624994  0.823673  1
  Ti  Ti56  1  0.125033  0.375086  0.910030  1
  Ti  Ti57  1  0.624994  0.375077  0.910074  1
  Ti  Ti58  1  0.125061  0.874963  0.910032  1
  Ti  Ti59  1  0.624951  0.874909  0.910109  1
  Ti  Ti60  1  0.375010  0.124910  0.910076  1
  Ti  Ti61  1  0.874973  0.124904  0.910030  1
  Ti  Ti62  1  0.375050  0.625072  0.910108  1
  Ti  Ti63  1  0.874945  0.625024  0.910031  1
  Ti  Ti64  1  0.395305  0.385792  0.653935  1
  Ti  Ti65  1  0.897478  0.379307  0.653891  1
  Ti  Ti66  1  0.397403  0.886846  0.651627  1
  Ti  Ti67  1  0.888528  0.885307  0.660447  1
  Ti  Ti68  1  0.102521  0.120689  0.653891  1
  Ti  Ti69  1  0.604694  0.114203  0.653935  1
  Ti  Ti70  1  0.111469  0.614688  0.660447  1
  Ti  Ti71  1  0.602597  0.613150  0.651628  1
  Ti  Ti72  1  0.149169  0.366772  0.573676  1
  Ti  Ti73  1  0.651501  0.356170  0.575499  1
  Ti  Ti74  1  0.142059  0.867654  0.581770  1
  Ti  Ti75  1  0.651079  0.860868  0.573593  1
  Ti  Ti76  1  0.348499  0.143829  0.575499  1
  Ti  Ti77  1  0.850831  0.133227  0.573676  1
  Ti  Ti78  1  0.348921  0.639131  0.573593  1
  Ti  Ti79  1  0.857940  0.632344  0.581771  1
  Ti  Ti80  1  0.402204  0.392404  0.495672  1
  Ti  Ti81  1  0.897460  0.372892  0.486066  1
  Ti  Ti82  1  0.377277  0.906796  0.491193  1
  Ti  Ti83  1  0.907103  0.888329  0.499342  1
  Ti  Ti84  1  0.102540  0.127108  0.486066  1
  Ti  Ti85  1  0.597796  0.107596  0.495672  1
  Ti  Ti86  1  0.092897  0.611670  0.499342  1
  Ti  Ti87  1  0.622723  0.593204  0.491193  1
  Ti  Ti88  1  0.125130  0.875254  0.737544  1
  Ti  Ti89  1  0.624835  0.874839  0.737512  1
  Ti  Ti90  1  0.375157  0.625142  0.737507  1
  Ti  Ti91  1  0.874864  0.624725  0.737550  1
  Ti  Ti92  1  0.124961  0.374997  0.737516  1
  Ti  Ti93  1  0.624994  0.374870  0.737560  1
  Ti  Ti94  1  0.374997  0.125108  0.737559  1
  Ti  Ti95  1  0.875035  0.124985  0.737516  1
  Zr  Zr96  1  0.500000  0.750000  0.336292  1
