# generated using pymatgen
data_Ti96Al
_symmetry_space_group_name_H-M   'P 1'
_cell_length_a   9.51302000
_cell_length_b   9.35086000
_cell_length_c   18.54723000
_cell_angle_alpha   90.00000000
_cell_angle_beta   90.00000000
_cell_angle_gamma   90.00000000
_symmetry_Int_Tables_number   1
_chemical_formula_structural   Ti96Al
_chemical_formula_sum   'Ti96 Al1'
_cell_volume   1649.86732743
_cell_formula_units_Z   1
loop_
 _symmetry_equiv_pos_site_id
 _symmetry_equiv_pos_as_xyz
  1  'x, y, z'
loop_
 _atom_site_type_symbol
 _atom_site_label
 _atom_site_symmetry_multiplicity
 _atom_site_fract_x
 _atom_site_fract_y
 _atom_site_fract_z
 _atom_site_occupancy
  Ti  Ti0  1  0.142881  0.376190  0.401712  1
  Ti  Ti1  1  0.651702  0.375319  0.397670  1
  Ti  Ti2  1  0.164349  0.889468  0.391470  1
  Ti  Ti3  1  0.648060  0.904789  0.412600  1
  Ti  Ti4  1  0.162856  0.378312  0.237207  1
  Ti  Ti5  1  0.660316  0.377568  0.235318  1
  Ti  Ti6  1  0.157664  0.875566  0.235663  1
  Ti  Ti7  1  0.662278  0.877068  0.233587  1
  Ti  Ti8  1  0.166657  0.374997  0.077676  1
  Ti  Ti9  1  0.666667  0.374991  0.077676  1
  Ti  Ti10  1  0.166672  0.875010  0.077689  1
  Ti  Ti11  1  0.666671  0.875005  0.077695  1
  Ti  Ti12  1  0.410192  0.371397  0.316695  1
  Ti  Ti13  1  0.907361  0.374675  0.314232  1
  Ti  Ti14  1  0.414804  0.872198  0.317616  1
  Ti  Ti15  1  0.897245  0.868669  0.321105  1
  Ti  Ti16  1  0.416660  0.374996  0.155339  1
  Ti  Ti17  1  0.916649  0.374988  0.155349  1
  Ti  Ti18  1  0.416689  0.875013  0.155357  1
  Ti  Ti19  1  0.916679  0.875030  0.155356  1
  Ti  Ti20  1  0.416661  0.375007  -0.000005  1
  Ti  Ti21  1  0.916659  0.375004  0.000001  1
  Ti  Ti22  1  0.416672  0.874995  0.000003  1
  Ti  Ti23  1  0.916661  0.875000  0.000007  1
  Ti  Ti24  1  0.089808  0.128603  0.316694  1
  Ti  Ti25  1  0.592639  0.125325  0.314231  1
  Ti  Ti26  1  0.085196  0.627802  0.317615  1
  Ti  Ti27  1  0.602755  0.631331  0.321104  1
  Ti  Ti28  1  0.083340  0.125007  0.155339  1
  Ti  Ti29  1  0.583351  0.125014  0.155349  1
  Ti  Ti30  1  0.083311  0.624989  0.155357  1
  Ti  Ti31  1  0.583321  0.624973  0.155356  1
  Ti  Ti32  1  0.083340  0.124997  -0.000005  1
  Ti  Ti33  1  0.583341  0.124998  0.000001  1
  Ti  Ti34  1  0.083329  0.625008  0.000002  1
  Ti  Ti35  1  0.583339  0.625003  0.000007  1
  Ti  Ti36  1  0.357118  0.123810  0.401712  1
  Ti  Ti37  1  0.848297  0.124681  0.397670  1
  Ti  Ti38  1  0.335650  0.610532  0.391470  1
  Ti  Ti39  1  0.851939  0.595211  0.412600  1
  Ti  Ti40  1  0.337143  0.121688  0.237207  1
  Ti  Ti41  1  0.839683  0.122432  0.235318  1
  Ti  Ti42  1  0.342335  0.624434  0.235663  1
  Ti  Ti43  1  0.837721  0.622933  0.233587  1
  Ti  Ti44  1  0.333342  0.125006  0.077676  1
  Ti  Ti45  1  0.833332  0.125011  0.077676  1
  Ti  Ti46  1  0.333327  0.624993  0.077689  1
  Ti  Ti47  1  0.833329  0.624997  0.077695  1
  Ti  Ti48  1  0.374984  0.375009  0.823819  1
  Ti  Ti49  1  0.875007  0.374986  0.823790  1
  Ti  Ti50  1  0.375009  0.874992  0.823822  1
  Ti  Ti51  1  0.875013  0.874966  0.823770  1
  Ti  Ti52  1  0.125017  0.124991  0.823818  1
  Ti  Ti53  1  0.624995  0.125013  0.823790  1
  Ti  Ti54  1  0.124993  0.625008  0.823821  1
  Ti  Ti55  1  0.624990  0.625033  0.823770  1
  Ti  Ti56  1  0.124984  0.374995  0.910105  1
  Ti  Ti57  1  0.625005  0.375009  0.910089  1
  Ti  Ti58  1  0.124989  0.874992  0.910110  1
  Ti  Ti59  1  0.625005  0.874985  0.910083  1
  Ti  Ti60  1  0.375019  0.125007  0.910105  1
  Ti  Ti61  1  0.874996  0.124993  0.910088  1
  Ti  Ti62  1  0.375014  0.625008  0.910110  1
  Ti  Ti63  1  0.874997  0.625017  0.910082  1
  Ti  Ti64  1  0.399383  0.378360  0.645750  1
  Ti  Ti65  1  0.884095  0.343365  0.654587  1
  Ti  Ti66  1  0.371338  0.869561  0.671263  1
  Ti  Ti67  1  0.887450  0.867212  0.658916  1
  Ti  Ti68  1  0.100616  0.121639  0.645750  1
  Ti  Ti69  1  0.615904  0.156633  0.654587  1
  Ti  Ti70  1  0.128661  0.630437  0.671263  1
  Ti  Ti71  1  0.612550  0.632786  0.658916  1
  Ti  Ti72  1  0.147962  0.380367  0.573198  1
  Ti  Ti73  1  0.659877  0.413619  0.567241  1
  Ti  Ti74  1  0.144802  0.870612  0.575607  1
  Ti  Ti75  1  0.574649  0.926634  0.580044  1
  Ti  Ti76  1  0.352038  0.119633  0.573198  1
  Ti  Ti77  1  0.840123  0.086381  0.567241  1
  Ti  Ti78  1  0.355197  0.629388  0.575607  1
  Ti  Ti79  1  0.925351  0.573366  0.580044  1
  Ti  Ti80  1  0.389191  0.372936  0.488933  1
  Ti  Ti81  1  0.899299  0.339929  0.491280  1
  Ti  Ti82  1  0.382441  0.857824  0.479628  1
  Ti  Ti83  1  0.931793  0.886586  0.472189  1
  Ti  Ti84  1  0.110809  0.127064  0.488933  1
  Ti  Ti85  1  0.600701  0.160071  0.491280  1
  Ti  Ti86  1  0.117559  0.642176  0.479628  1
  Ti  Ti87  1  0.568207  0.613414  0.472189  1
  Ti  Ti88  1  0.125100  0.875006  0.737560  1
  Ti  Ti89  1  0.624941  0.875067  0.737528  1
  Ti  Ti90  1  0.374896  0.624986  0.737561  1
  Ti  Ti91  1  0.875055  0.624926  0.737528  1
  Ti  Ti92  1  0.125084  0.374928  0.737539  1
  Ti  Ti93  1  0.624911  0.375205  0.737554  1
  Ti  Ti94  1  0.374913  0.125065  0.737539  1
  Ti  Ti95  1  0.875085  0.124786  0.737556  1
  Al  Al96  1  0.750000  0.750000  0.538942  1
