# generated using pymatgen
data_Ti96Mo
_symmetry_space_group_name_H-M   'P 1'
_cell_length_a   9.51302000
_cell_length_b   9.35086000
_cell_length_c   18.54723000
_cell_angle_alpha   90.00000000
_cell_angle_beta   90.00000000
_cell_angle_gamma   90.00000000
_symmetry_Int_Tables_number   1
_chemical_formula_structural   Ti96Mo
_chemical_formula_sum   'Ti96 Mo1'
_cell_volume   1649.86732743
_cell_formula_units_Z   1
loop_
 _symmetry_equiv_pos_site_id
 _symmetry_equiv_pos_as_xyz
  1  'x, y, z'
loop_
 _atom_site_type_symbol
 _atom_site_label
 _atom_site_symmetry_multiplicity
 _atom_site_fract_x
 _atom_site_fract_y
 _atom_site_fract_z
 _atom_site_occupancy
  Ti  Ti0  1  0.155081  0.383899  0.408834  1
  Ti  Ti1  1  0.663711  0.355217  0.424979  1
  Ti  Ti2  1  0.147003  0.865763  0.414472  1
  Ti  Ti3  1  0.647411  0.854810  0.400253  1
  Ti  Ti4  1  0.141449  0.359277  0.241415  1
  Ti  Ti5  1  0.658997  0.367628  0.233617  1
  Ti  Ti6  1  0.171460  0.859807  0.240874  1
  Ti  Ti7  1  0.682003  0.915317  0.241960  1
  Ti  Ti8  1  0.166666  0.375000  0.077689  1
  Ti  Ti9  1  0.666666  0.375000  0.077689  1
  Ti  Ti10  1  0.166666  0.875000  0.077689  1
  Ti  Ti11  1  0.666666  0.875000  0.077689  1
  Ti  Ti12  1  0.395162  0.358077  0.329702  1
  Ti  Ti13  1  0.892425  0.374889  0.329582  1
  Ti  Ti14  1  0.384616  0.936529  0.339807  1
  Ti  Ti15  1  0.918651  0.879656  0.321049  1
  Ti  Ti16  1  0.416667  0.375000  0.155379  1
  Ti  Ti17  1  0.916667  0.375000  0.155379  1
  Ti  Ti18  1  0.416667  0.875000  0.155379  1
  Ti  Ti19  1  0.916667  0.875000  0.155379  1
  Ti  Ti20  1  0.416667  0.375000  0.000000  1
  Ti  Ti21  1  0.916667  0.375000  0.000000  1
  Ti  Ti22  1  0.416667  0.875000  0.000000  1
  Ti  Ti23  1  0.916667  0.875000  0.000000  1
  Ti  Ti24  1  0.107575  0.125111  0.329581  1
  Ti  Ti25  1  0.604838  0.141923  0.329701  1
  Ti  Ti26  1  0.081349  0.620344  0.321048  1
  Ti  Ti27  1  0.615384  0.563471  0.339806  1
  Ti  Ti28  1  0.083333  0.125000  0.155379  1
  Ti  Ti29  1  0.583333  0.125000  0.155379  1
  Ti  Ti30  1  0.083333  0.625000  0.155379  1
  Ti  Ti31  1  0.583333  0.625000  0.155379  1
  Ti  Ti32  1  0.083333  0.125000  0.000000  1
  Ti  Ti33  1  0.583333  0.125000  0.000000  1
  Ti  Ti34  1  0.083333  0.625000  0.000000  1
  Ti  Ti35  1  0.583333  0.625000  0.000000  1
  Ti  Ti36  1  0.336288  0.144783  0.424979  1
  Ti  Ti37  1  0.844918  0.116101  0.408834  1
  Ti  Ti38  1  0.352588  0.645190  0.400253  1
  Ti  Ti39  1  0.852996  0.634237  0.414472  1
  Ti  Ti40  1  0.341002  0.132372  0.233617  1
  Ti  Ti41  1  0.858550  0.140723  0.241415  1
  Ti  Ti42  1  0.317996  0.584683  0.241960  1
  Ti  Ti43  1  0.828539  0.640193  0.240874  1
  Ti  Ti44  1  0.333333  0.125000  0.077689  1
  Ti  Ti45  1  0.833333  0.125000  0.077689  1
  Ti  Ti46  1  0.333333  0.625000  0.077689  1
  Ti  Ti47  1  0.833333  0.625000  0.077689  1
  Ti  Ti48  1  0.375000  0.375000  0.823738  1
  Ti  Ti49  1  0.875000  0.375000  0.823738  1
  Ti  Ti50  1  0.375000  0.875000  0.823738  1
  Ti  Ti51  1  0.875000  0.875000  0.823738  1
  Ti  Ti52  1  0.125000  0.125000  0.823738  1
  Ti  Ti53  1  0.625000  0.125000  0.823738  1
  Ti  Ti54  1  0.125000  0.625000  0.823738  1
  Ti  Ti55  1  0.625000  0.625000  0.823738  1
  Ti  Ti56  1  0.125000  0.375000  0.910084  1
  Ti  Ti57  1  0.625000  0.375000  0.910084  1
  Ti  Ti58  1  0.125000  0.875000  0.910084  1
  Ti  Ti59  1  0.625000  0.875000  0.910084  1
  Ti  Ti60  1  0.375000  0.125000  0.910084  1
  Ti  Ti61  1  0.875000  0.125000  0.910084  1
  Ti  Ti62  1  0.375000  0.625000  0.910084  1
  Ti  Ti63  1  0.875000  0.625000  0.910084  1
  Ti  Ti64  1  0.397857  0.383658  0.654167  1
  Ti  Ti65  1  0.900143  0.379234  0.653888  1
  Ti  Ti66  1  0.400494  0.879808  0.652231  1
  Ti  Ti67  1  0.898296  0.882100  0.652434  1
  Ti  Ti68  1  0.099857  0.120766  0.653888  1
  Ti  Ti69  1  0.602143  0.116342  0.654167  1
  Ti  Ti70  1  0.101704  0.617900  0.652434  1
  Ti  Ti71  1  0.599506  0.620192  0.652231  1
  Ti  Ti72  1  0.155749  0.367063  0.572044  1
  Ti  Ti73  1  0.649572  0.366522  0.576536  1
  Ti  Ti74  1  0.154136  0.872968  0.575256  1
  Ti  Ti75  1  0.656695  0.869867  0.572173  1
  Ti  Ti76  1  0.350428  0.133478  0.576536  1
  Ti  Ti77  1  0.844251  0.132937  0.572044  1
  Ti  Ti78  1  0.343305  0.630133  0.572173  1
  Ti  Ti79  1  0.845864  0.627032  0.575256  1
  Ti  Ti80  1  0.406310  0.393287  0.489850  1
  Ti  Ti81  1  0.911190  0.379072  0.490868  1
  Ti  Ti82  1  0.400634  0.879404  0.494630  1
  Ti  Ti83  1  0.903038  0.877238  0.494435  1
  Ti  Ti84  1  0.088810  0.120928  0.490868  1
  Ti  Ti85  1  0.593690  0.106713  0.489850  1
  Ti  Ti86  1  0.096962  0.622762  0.494435  1
  Ti  Ti87  1  0.599366  0.620596  0.494630  1
  Ti  Ti88  1  0.125000  0.875000  0.737395  1
  Ti  Ti89  1  0.625000  0.875000  0.737395  1
  Ti  Ti90  1  0.375000  0.625000  0.737395  1
  Ti  Ti91  1  0.875000  0.625000  0.737395  1
  Ti  Ti92  1  0.125000  0.375000  0.737395  1
  Ti  Ti93  1  0.625000  0.375000  0.737395  1
  Ti  Ti94  1  0.375000  0.125000  0.737395  1
  Ti  Ti95  1  0.875000  0.125000  0.737395  1
  Mo  Mo96  1  0.500000  0.750000  0.265902  1
