# generated using pymatgen
data_ZrTi96
_symmetry_space_group_name_H-M   'P 1'
_cell_length_a   9.51302000
_cell_length_b   9.35086000
_cell_length_c   18.54723000
_cell_angle_alpha   90.00000000
_cell_angle_beta   90.00000000
_cell_angle_gamma   90.00000000
_symmetry_Int_Tables_number   1
_chemical_formula_structural   ZrTi96
_chemical_formula_sum   'Zr1 Ti96'
_cell_volume   1649.86732743
_cell_formula_units_Z   1
loop_
 _symmetry_equiv_pos_site_id
 _symmetry_equiv_pos_as_xyz
  1  'x, y, z'
loop_
 _atom_site_type_symbol
 _atom_site_label
 _atom_site_symmetry_multiplicity
 _atom_site_fract_x
 _atom_site_fract_y
 _atom_site_fract_z
 _atom_site_occupancy
  Ti  Ti0  1  0.144902  0.365797  0.406797  1
  Ti  Ti1  1  0.631256  0.346698  0.407227  1
  Ti  Ti2  1  0.151443  0.849602  0.390352  1
  Ti  Ti3  1  0.684861  0.907942  0.391271  1
  Ti  Ti4  1  0.156249  0.372274  0.236849  1
  Ti  Ti5  1  0.663359  0.374405  0.234028  1
  Ti  Ti6  1  0.163096  0.876616  0.234866  1
  Ti  Ti7  1  0.662223  0.870437  0.235059  1
  Ti  Ti8  1  0.166666  0.375000  0.077689  1
  Ti  Ti9  1  0.666666  0.375000  0.077689  1
  Ti  Ti10  1  0.166666  0.875000  0.077689  1
  Ti  Ti11  1  0.666666  0.875000  0.077689  1
  Ti  Ti12  1  0.405901  0.374016  0.309375  1
  Ti  Ti13  1  0.892371  0.377296  0.325874  1
  Ti  Ti14  1  0.411040  0.886535  0.320227  1
  Ti  Ti15  1  0.917605  0.885263  0.311127  1
  Ti  Ti16  1  0.416667  0.375000  0.155379  1
  Ti  Ti17  1  0.916667  0.375000  0.155379  1
  Ti  Ti18  1  0.416667  0.875000  0.155379  1
  Ti  Ti19  1  0.916667  0.875000  0.155379  1
  Ti  Ti20  1  0.416667  0.375000  -0.000000  1
  Ti  Ti21  1  0.916667  0.375000  -0.000000  1
  Ti  Ti22  1  0.416667  0.875000  0.000000  1
  Ti  Ti23  1  0.916667  0.875000  0.000000  1
  Ti  Ti24  1  0.107629  0.122704  0.325873  1
  Ti  Ti25  1  0.594099  0.125984  0.309374  1
  Ti  Ti26  1  0.082395  0.614737  0.311126  1
  Ti  Ti27  1  0.588960  0.613465  0.320226  1
  Ti  Ti28  1  0.083333  0.125000  0.155379  1
  Ti  Ti29  1  0.583333  0.125000  0.155379  1
  Ti  Ti30  1  0.083333  0.625000  0.155379  1
  Ti  Ti31  1  0.583333  0.625000  0.155379  1
  Ti  Ti32  1  0.083333  0.125000  -0.000000  1
  Ti  Ti33  1  0.583333  0.125000  -0.000000  1
  Ti  Ti34  1  0.083333  0.625000  0.000000  1
  Ti  Ti35  1  0.583333  0.625000  0.000000  1
  Ti  Ti36  1  0.368743  0.153302  0.407227  1
  Ti  Ti37  1  0.855097  0.134203  0.406797  1
  Ti  Ti38  1  0.315138  0.592058  0.391271  1
  Ti  Ti39  1  0.848556  0.650398  0.390352  1
  Ti  Ti40  1  0.336640  0.125595  0.234028  1
  Ti  Ti41  1  0.843750  0.127726  0.236849  1
  Ti  Ti42  1  0.337776  0.629563  0.235059  1
  Ti  Ti43  1  0.836903  0.623384  0.234866  1
  Ti  Ti44  1  0.333333  0.125000  0.077689  1
  Ti  Ti45  1  0.833333  0.125000  0.077689  1
  Ti  Ti46  1  0.333333  0.625000  0.077689  1
  Ti  Ti47  1  0.833333  0.625000  0.077689  1
  Ti  Ti48  1  0.375000  0.375000  0.823738  1
  Ti  Ti49  1  0.875000  0.375000  0.823738  1
  Ti  Ti50  1  0.375000  0.875000  0.823738  1
  Ti  Ti51  1  0.875000  0.875000  0.823738  1
  Ti  Ti52  1  0.125000  0.125000  0.823738  1
  Ti  Ti53  1  0.625000  0.125000  0.823738  1
  Ti  Ti54  1  0.125000  0.625000  0.823738  1
  Ti  Ti55  1  0.625000  0.625000  0.823738  1
  Ti  Ti56  1  0.125000  0.375000  0.910084  1
  Ti  Ti57  1  0.625000  0.375000  0.910084  1
  Ti  Ti58  1  0.125000  0.875000  0.910084  1
  Ti  Ti59  1  0.625000  0.875000  0.910084  1
  Ti  Ti60  1  0.375000  0.125000  0.910084  1
  Ti  Ti61  1  0.875000  0.125000  0.910084  1
  Ti  Ti62  1  0.375000  0.625000  0.910084  1
  Ti  Ti63  1  0.875000  0.625000  0.910084  1
  Ti  Ti64  1  0.391336  0.390044  0.655842  1
  Ti  Ti65  1  0.894227  0.364956  0.648207  1
  Ti  Ti66  1  0.394106  0.894970  0.645025  1
  Ti  Ti67  1  0.879797  0.882876  0.671948  1
  Ti  Ti68  1  0.105773  0.135044  0.648207  1
  Ti  Ti69  1  0.608664  0.109956  0.655842  1
  Ti  Ti70  1  0.120203  0.617124  0.671948  1
  Ti  Ti71  1  0.605894  0.605030  0.645025  1
  Ti  Ti72  1  0.150785  0.390102  0.566373  1
  Ti  Ti73  1  0.647934  0.334204  0.571745  1
  Ti  Ti74  1  0.116339  0.863257  0.587935  1
  Ti  Ti75  1  0.656811  0.855930  0.578250  1
  Ti  Ti76  1  0.352066  0.165796  0.571745  1
  Ti  Ti77  1  0.849215  0.109898  0.566373  1
  Ti  Ti78  1  0.343189  0.644070  0.578250  1
  Ti  Ti79  1  0.883661  0.636743  0.587935  1
  Ti  Ti80  1  0.414517  0.412500  0.495832  1
  Ti  Ti81  1  0.900420  0.372484  0.487786  1
  Ti  Ti82  1  0.311930  0.935598  0.498440  1
  Ti  Ti83  1  0.911365  0.872329  0.482600  1
  Ti  Ti84  1  0.099580  0.127516  0.487786  1
  Ti  Ti85  1  0.585483  0.087500  0.495832  1
  Ti  Ti86  1  0.088635  0.627671  0.482600  1
  Ti  Ti87  1  0.688070  0.564402  0.498440  1
  Ti  Ti88  1  0.125000  0.875000  0.737395  1
  Ti  Ti89  1  0.625000  0.875000  0.737395  1
  Ti  Ti90  1  0.375000  0.625000  0.737395  1
  Ti  Ti91  1  0.875000  0.625000  0.737395  1
  Ti  Ti92  1  0.125000  0.375000  0.737395  1
  Ti  Ti93  1  0.625000  0.375000  0.737395  1
  Ti  Ti94  1  0.375000  0.125000  0.737395  1
  Ti  Ti95  1  0.875000  0.125000  0.737395  1
  Zr  Zr96  1  0.500000  0.750000  0.457468  1
