# generated using pymatgen
data_Ti96Cr
_symmetry_space_group_name_H-M   'P 1'
_cell_length_a   9.51302000
_cell_length_b   9.35086000
_cell_length_c   18.54723000
_cell_angle_alpha   90.00000000
_cell_angle_beta   90.00000000
_cell_angle_gamma   90.00000000
_symmetry_Int_Tables_number   1
_chemical_formula_structural   Ti96Cr
_chemical_formula_sum   'Ti96 Cr1'
_cell_volume   1649.86732743
_cell_formula_units_Z   1
loop_
 _symmetry_equiv_pos_site_id
 _symmetry_equiv_pos_as_xyz
  1  'x, y, z'
loop_
 _atom_site_type_symbol
 _atom_site_label
 _atom_site_symmetry_multiplicity
 _atom_site_fract_x
 _atom_site_fract_y
 _atom_site_fract_z
 _atom_site_occupancy
  Ti  Ti0  1  0.142466  0.379530  0.405201  1
  Ti  Ti1  1  0.648134  0.361228  0.402547  1
  Ti  Ti2  1  0.167523  0.884523  0.403883  1
  Ti  Ti3  1  0.636356  0.937258  0.406377  1
  Ti  Ti4  1  0.161394  0.379629  0.236298  1
  Ti  Ti5  1  0.659411  0.377630  0.232961  1
  Ti  Ti6  1  0.160801  0.875918  0.237249  1
  Ti  Ti7  1  0.657296  0.880138  0.235549  1
  Ti  Ti8  1  0.166653  0.374982  0.077499  1
  Ti  Ti9  1  0.666692  0.375016  0.077528  1
  Ti  Ti10  1  0.166675  0.874981  0.077545  1
  Ti  Ti11  1  0.666691  0.874962  0.077697  1
  Ti  Ti12  1  0.398782  0.367861  0.319762  1
  Ti  Ti13  1  0.909146  0.363059  0.311480  1
  Ti  Ti14  1  0.412474  0.863453  0.321794  1
  Ti  Ti15  1  0.912697  0.887923  0.325204  1
  Ti  Ti16  1  0.416587  0.375049  0.155085  1
  Ti  Ti17  1  0.916809  0.374874  0.155054  1
  Ti  Ti18  1  0.416777  0.875006  0.155218  1
  Ti  Ti19  1  0.916650  0.874896  0.155311  1
  Ti  Ti20  1  0.416682  0.375024  -0.000098  1
  Ti  Ti21  1  0.916647  0.375009  -0.000081  1
  Ti  Ti22  1  0.416723  0.874983  -0.000051  1
  Ti  Ti23  1  0.916627  0.874961  -0.000013  1
  Ti  Ti24  1  0.101219  0.132140  0.319761  1
  Ti  Ti25  1  0.590854  0.136941  0.311478  1
  Ti  Ti26  1  0.087526  0.636547  0.321793  1
  Ti  Ti27  1  0.587303  0.612077  0.325203  1
  Ti  Ti28  1  0.083417  0.124966  0.155085  1
  Ti  Ti29  1  0.583187  0.125142  0.155052  1
  Ti  Ti30  1  0.083226  0.625003  0.155218  1
  Ti  Ti31  1  0.583350  0.625110  0.155310  1
  Ti  Ti32  1  0.083322  0.124981  -0.000097  1
  Ti  Ti33  1  0.583350  0.124998  -0.000080  1
  Ti  Ti34  1  0.083278  0.625018  -0.000052  1
  Ti  Ti35  1  0.583371  0.625039  -0.000014  1
  Ti  Ti36  1  0.357533  0.120470  0.405201  1
  Ti  Ti37  1  0.851865  0.138772  0.402547  1
  Ti  Ti38  1  0.332476  0.615477  0.403883  1
  Ti  Ti39  1  0.863643  0.562742  0.406377  1
  Ti  Ti40  1  0.338605  0.120373  0.236298  1
  Ti  Ti41  1  0.840588  0.122373  0.232961  1
  Ti  Ti42  1  0.339198  0.624084  0.237249  1
  Ti  Ti43  1  0.842703  0.619865  0.235549  1
  Ti  Ti44  1  0.333346  0.125028  0.077499  1
  Ti  Ti45  1  0.833308  0.124992  0.077529  1
  Ti  Ti46  1  0.333323  0.625028  0.077544  1
  Ti  Ti47  1  0.833309  0.625043  0.077696  1
  Ti  Ti48  1  0.374970  0.375025  0.823851  1
  Ti  Ti49  1  0.875010  0.374983  0.823808  1
  Ti  Ti50  1  0.375036  0.874977  0.823821  1
  Ti  Ti51  1  0.874975  0.874955  0.823768  1
  Ti  Ti52  1  0.125033  0.124969  0.823852  1
  Ti  Ti53  1  0.624994  0.125015  0.823809  1
  Ti  Ti54  1  0.124969  0.625015  0.823821  1
  Ti  Ti55  1  0.625032  0.625042  0.823768  1
  Ti  Ti56  1  0.124911  0.375057  0.910041  1
  Ti  Ti57  1  0.625050  0.375093  0.910017  1
  Ti  Ti58  1  0.124882  0.874943  0.910031  1
  Ti  Ti59  1  0.625058  0.874940  0.909994  1
  Ti  Ti60  1  0.375093  0.124944  0.910042  1
  Ti  Ti61  1  0.874953  0.124908  0.910019  1
  Ti  Ti62  1  0.375121  0.625052  0.910031  1
  Ti  Ti63  1  0.874944  0.625062  0.909993  1
  Ti  Ti64  1  0.393934  0.366616  0.648743  1
  Ti  Ti65  1  0.895207  0.367676  0.660566  1
  Ti  Ti66  1  0.392591  0.863646  0.656883  1
  Ti  Ti67  1  0.898073  0.863003  0.649638  1
  Ti  Ti68  1  0.106065  0.133380  0.648743  1
  Ti  Ti69  1  0.604791  0.132320  0.660566  1
  Ti  Ti70  1  0.107407  0.636350  0.656883  1
  Ti  Ti71  1  0.601926  0.636994  0.649638  1
  Ti  Ti72  1  0.146844  0.390929  0.571870  1
  Ti  Ti73  1  0.652780  0.382391  0.577667  1
  Ti  Ti74  1  0.155419  0.879864  0.570927  1
  Ti  Ti75  1  0.643915  0.890991  0.576139  1
  Ti  Ti76  1  0.353155  0.109070  0.571870  1
  Ti  Ti77  1  0.847220  0.117607  0.577667  1
  Ti  Ti78  1  0.344581  0.620135  0.570927  1
  Ti  Ti79  1  0.856084  0.609008  0.576139  1
  Ti  Ti80  1  0.392427  0.365592  0.490241  1
  Ti  Ti81  1  0.903267  0.352797  0.496912  1
  Ti  Ti82  1  0.410800  0.857253  0.486879  1
  Ti  Ti83  1  0.912342  0.891513  0.483258  1
  Ti  Ti84  1  0.107573  0.134408  0.490241  1
  Ti  Ti85  1  0.596733  0.147203  0.496911  1
  Ti  Ti86  1  0.089200  0.642746  0.486879  1
  Ti  Ti87  1  0.587657  0.608487  0.483258  1
  Ti  Ti88  1  0.125043  0.874936  0.737587  1
  Ti  Ti89  1  0.625022  0.875003  0.737481  1
  Ti  Ti90  1  0.374949  0.625045  0.737586  1
  Ti  Ti91  1  0.874974  0.624986  0.737481  1
  Ti  Ti92  1  0.125048  0.374936  0.737613  1
  Ti  Ti93  1  0.624955  0.375043  0.737600  1
  Ti  Ti94  1  0.374943  0.125047  0.737613  1
  Ti  Ti95  1  0.875039  0.124939  0.737601  1
  Cr  Cr96  1  0.750000  0.750000  0.411337  1
