# generated using pymatgen
data_Ti96Al
_symmetry_space_group_name_H-M   'P 1'
_cell_length_a   9.51302000
_cell_length_b   9.35086000
_cell_length_c   18.54723000
_cell_angle_alpha   90.00000000
_cell_angle_beta   90.00000000
_cell_angle_gamma   90.00000000
_symmetry_Int_Tables_number   1
_chemical_formula_structural   Ti96Al
_chemical_formula_sum   'Ti96 Al1'
_cell_volume   1649.86732743
_cell_formula_units_Z   1
loop_
 _symmetry_equiv_pos_site_id
 _symmetry_equiv_pos_as_xyz
  1  'x, y, z'
loop_
 _atom_site_type_symbol
 _atom_site_label
 _atom_site_symmetry_multiplicity
 _atom_site_fract_x
 _atom_site_fract_y
 _atom_site_fract_z
 _atom_site_occupancy
  Ti  Ti0  1  0.147136  0.376612  0.404981  1
  Ti  Ti1  1  0.649487  0.339387  0.401244  1
  Ti  Ti2  1  0.131141  0.855773  0.394696  1
  Ti  Ti3  1  0.667673  0.868944  0.397614  1
  Ti  Ti4  1  0.162114  0.371337  0.235258  1
  Ti  Ti5  1  0.659360  0.375482  0.234428  1
  Ti  Ti6  1  0.164107  0.874168  0.235224  1
  Ti  Ti7  1  0.654261  0.869712  0.236614  1
  Ti  Ti8  1  0.166645  0.375028  0.077657  1
  Ti  Ti9  1  0.666677  0.375008  0.077637  1
  Ti  Ti10  1  0.166641  0.874990  0.077665  1
  Ti  Ti11  1  0.666688  0.874982  0.077659  1
  Ti  Ti12  1  0.406232  0.384660  0.314887  1
  Ti  Ti13  1  0.900690  0.374561  0.320126  1
  Ti  Ti14  1  0.399347  0.891756  0.331002  1
  Ti  Ti15  1  0.909929  0.883668  0.309458  1
  Ti  Ti16  1  0.416652  0.375010  0.155308  1
  Ti  Ti17  1  0.916667  0.374988  0.155293  1
  Ti  Ti18  1  0.416667  0.874983  0.155343  1
  Ti  Ti19  1  0.916666  0.874992  0.155332  1
  Ti  Ti20  1  0.416670  0.375031  0.000032  1
  Ti  Ti21  1  0.916641  0.375018  0.000018  1
  Ti  Ti22  1  0.416677  0.874977  0.000045  1
  Ti  Ti23  1  0.916647  0.874983  0.000025  1
  Ti  Ti24  1  0.099310  0.125440  0.320125  1
  Ti  Ti25  1  0.593768  0.115340  0.314886  1
  Ti  Ti26  1  0.090071  0.616333  0.309457  1
  Ti  Ti27  1  0.600653  0.608244  0.331001  1
  Ti  Ti28  1  0.083333  0.125018  0.155293  1
  Ti  Ti29  1  0.583348  0.124996  0.155309  1
  Ti  Ti30  1  0.083334  0.625014  0.155332  1
  Ti  Ti31  1  0.583333  0.625022  0.155343  1
  Ti  Ti32  1  0.083359  0.124985  0.000018  1
  Ti  Ti33  1  0.583330  0.124971  0.000032  1
  Ti  Ti34  1  0.083353  0.625021  0.000025  1
  Ti  Ti35  1  0.583324  0.625025  0.000046  1
  Ti  Ti36  1  0.350512  0.160613  0.401244  1
  Ti  Ti37  1  0.852863  0.123388  0.404981  1
  Ti  Ti38  1  0.332326  0.631056  0.397614  1
  Ti  Ti39  1  0.868858  0.644227  0.394696  1
  Ti  Ti40  1  0.340639  0.124519  0.234428  1
  Ti  Ti41  1  0.837885  0.128664  0.235258  1
  Ti  Ti42  1  0.345738  0.630289  0.236614  1
  Ti  Ti43  1  0.835892  0.625833  0.235224  1
  Ti  Ti44  1  0.333323  0.124997  0.077638  1
  Ti  Ti45  1  0.833354  0.124977  0.077657  1
  Ti  Ti46  1  0.333311  0.625024  0.077659  1
  Ti  Ti47  1  0.833358  0.625015  0.077666  1
  Ti  Ti48  1  0.375008  0.375016  0.823859  1
  Ti  Ti49  1  0.874965  0.374967  0.823867  1
  Ti  Ti50  1  0.375017  0.874961  0.823783  1
  Ti  Ti51  1  0.875055  0.874986  0.823799  1
  Ti  Ti52  1  0.125039  0.125029  0.823867  1
  Ti  Ti53  1  0.624997  0.124986  0.823860  1
  Ti  Ti54  1  0.124947  0.625015  0.823800  1
  Ti  Ti55  1  0.624985  0.625036  0.823784  1
  Ti  Ti56  1  0.124984  0.375023  0.910149  1
  Ti  Ti57  1  0.624994  0.375010  0.910142  1
  Ti  Ti58  1  0.125005  0.874979  0.910121  1
  Ti  Ti59  1  0.624989  0.874973  0.910119  1
  Ti  Ti60  1  0.375010  0.124990  0.910142  1
  Ti  Ti61  1  0.875020  0.124977  0.910149  1
  Ti  Ti62  1  0.375013  0.625027  0.910119  1
  Ti  Ti63  1  0.874999  0.625022  0.910121  1
  Ti  Ti64  1  0.389316  0.380011  0.664136  1
  Ti  Ti65  1  0.886153  0.378864  0.646043  1
  Ti  Ti66  1  0.387440  0.892463  0.648348  1
  Ti  Ti67  1  0.890625  0.884449  0.666138  1
  Ti  Ti68  1  0.113846  0.121134  0.646043  1
  Ti  Ti69  1  0.610683  0.119987  0.664136  1
  Ti  Ti70  1  0.109374  0.615548  0.666138  1
  Ti  Ti71  1  0.612560  0.607535  0.648348  1
  Ti  Ti72  1  0.146284  0.373168  0.570193  1
  Ti  Ti73  1  0.633357  0.341125  0.572495  1
  Ti  Ti74  1  0.134190  0.853314  0.580507  1
  Ti  Ti75  1  0.666257  0.886340  0.580412  1
  Ti  Ti76  1  0.366643  0.158874  0.572495  1
  Ti  Ti77  1  0.853716  0.126832  0.570193  1
  Ti  Ti78  1  0.333743  0.613660  0.580412  1
  Ti  Ti79  1  0.865809  0.646685  0.580507  1
  Ti  Ti80  1  0.410178  0.409480  0.484897  1
  Ti  Ti81  1  0.896662  0.375377  0.487906  1
  Ti  Ti82  1  0.325584  0.934103  0.484969  1
  Ti  Ti83  1  0.909954  0.884560  0.489324  1
  Ti  Ti84  1  0.103338  0.124623  0.487906  1
  Ti  Ti85  1  0.589822  0.090520  0.484897  1
  Ti  Ti86  1  0.090046  0.615440  0.489324  1
  Ti  Ti87  1  0.674415  0.565897  0.484969  1
  Ti  Ti88  1  0.125248  0.875005  0.737593  1
  Ti  Ti89  1  0.625098  0.874979  0.737610  1
  Ti  Ti90  1  0.374896  0.625009  0.737610  1
  Ti  Ti91  1  0.874747  0.624985  0.737595  1
  Ti  Ti92  1  0.124844  0.374848  0.737661  1
  Ti  Ti93  1  0.625022  0.374835  0.737638  1
  Ti  Ti94  1  0.374972  0.125152  0.737636  1
  Ti  Ti95  1  0.875149  0.125138  0.737658  1
  Al  Al96  1  0.500000  0.750000  0.499575  1
