# generated using pymatgen
data_Ti96Al
_symmetry_space_group_name_H-M   'P 1'
_cell_length_a   9.51302000
_cell_length_b   9.35086000
_cell_length_c   18.54723000
_cell_angle_alpha   90.00000000
_cell_angle_beta   90.00000000
_cell_angle_gamma   90.00000000
_symmetry_Int_Tables_number   1
_chemical_formula_structural   Ti96Al
_chemical_formula_sum   'Ti96 Al1'
_cell_volume   1649.86732743
_cell_formula_units_Z   1
loop_
 _symmetry_equiv_pos_site_id
 _symmetry_equiv_pos_as_xyz
  1  'x, y, z'
loop_
 _atom_site_type_symbol
 _atom_site_label
 _atom_site_symmetry_multiplicity
 _atom_site_fract_x
 _atom_site_fract_y
 _atom_site_fract_z
 _atom_site_occupancy
  Ti  Ti0  1  0.141358  0.372370  0.405112  1
  Ti  Ti1  1  0.654677  0.349065  0.410998  1
  Ti  Ti2  1  0.150116  0.859915  0.408646  1
  Ti  Ti3  1  0.674331  0.897484  0.397914  1
  Ti  Ti4  1  0.149289  0.369041  0.239995  1
  Ti  Ti5  1  0.662203  0.369539  0.232848  1
  Ti  Ti6  1  0.165469  0.869694  0.235177  1
  Ti  Ti7  1  0.673998  0.894227  0.234521  1
  Ti  Ti8  1  0.166667  0.375125  0.077339  1
  Ti  Ti9  1  0.666730  0.374973  0.077276  1
  Ti  Ti10  1  0.166738  0.875029  0.077466  1
  Ti  Ti11  1  0.666540  0.874901  0.077610  1
  Ti  Ti12  1  0.406658  0.368974  0.317906  1
  Ti  Ti13  1  0.900209  0.373588  0.322670  1
  Ti  Ti14  1  0.371991  0.927803  0.327354  1
  Ti  Ti15  1  0.917360  0.877070  0.316810  1
  Ti  Ti16  1  0.416752  0.375233  0.154875  1
  Ti  Ti17  1  0.916862  0.374834  0.154785  1
  Ti  Ti18  1  0.416568  0.874938  0.155503  1
  Ti  Ti19  1  0.916675  0.875177  0.154902  1
  Ti  Ti20  1  0.416675  0.375077  -0.000165  1
  Ti  Ti21  1  0.916650  0.375008  -0.000233  1
  Ti  Ti22  1  0.416681  0.874937  0.000010  1
  Ti  Ti23  1  0.916635  0.874966  -0.000159  1
  Ti  Ti24  1  0.099791  0.126414  0.322668  1
  Ti  Ti25  1  0.593342  0.131028  0.317905  1
  Ti  Ti26  1  0.082640  0.622932  0.316810  1
  Ti  Ti27  1  0.628009  0.572198  0.327354  1
  Ti  Ti28  1  0.083138  0.125201  0.154783  1
  Ti  Ti29  1  0.583247  0.124796  0.154877  1
  Ti  Ti30  1  0.083326  0.624851  0.154904  1
  Ti  Ti31  1  0.583434  0.625062  0.155502  1
  Ti  Ti32  1  0.083351  0.125001  -0.000233  1
  Ti  Ti33  1  0.583325  0.124938  -0.000163  1
  Ti  Ti34  1  0.083366  0.625038  -0.000159  1
  Ti  Ti35  1  0.583321  0.625056  0.000008  1
  Ti  Ti36  1  0.345322  0.150936  0.410998  1
  Ti  Ti37  1  0.858641  0.127630  0.405112  1
  Ti  Ti38  1  0.325667  0.602517  0.397914  1
  Ti  Ti39  1  0.849883  0.640086  0.408646  1
  Ti  Ti40  1  0.337796  0.130465  0.232848  1
  Ti  Ti41  1  0.850711  0.130964  0.239995  1
  Ti  Ti42  1  0.326001  0.605777  0.234521  1
  Ti  Ti43  1  0.834530  0.630313  0.235178  1
  Ti  Ti44  1  0.333270  0.125049  0.077276  1
  Ti  Ti45  1  0.833332  0.124897  0.077341  1
  Ti  Ti46  1  0.333458  0.625111  0.077609  1
  Ti  Ti47  1  0.833262  0.624989  0.077466  1
  Ti  Ti48  1  0.375039  0.375075  0.823774  1
  Ti  Ti49  1  0.874906  0.375040  0.823797  1
  Ti  Ti50  1  0.375061  0.874917  0.823696  1
  Ti  Ti51  1  0.874917  0.874951  0.823738  1
  Ti  Ti52  1  0.125098  0.124942  0.823798  1
  Ti  Ti53  1  0.624962  0.124920  0.823776  1
  Ti  Ti54  1  0.125086  0.625034  0.823737  1
  Ti  Ti55  1  0.624945  0.625070  0.823694  1
  Ti  Ti56  1  0.125051  0.375088  0.910033  1
  Ti  Ti57  1  0.624973  0.375082  0.910050  1
  Ti  Ti58  1  0.125099  0.874928  0.910078  1
  Ti  Ti59  1  0.624930  0.874924  0.910140  1
  Ti  Ti60  1  0.375034  0.124912  0.910052  1
  Ti  Ti61  1  0.874954  0.124906  0.910034  1
  Ti  Ti62  1  0.375072  0.625053  0.910139  1
  Ti  Ti63  1  0.874906  0.625054  0.910077  1
  Ti  Ti64  1  0.393743  0.396010  0.653680  1
  Ti  Ti65  1  0.900058  0.376773  0.651706  1
  Ti  Ti66  1  0.391894  0.884228  0.653387  1
  Ti  Ti67  1  0.886838  0.883796  0.660645  1
  Ti  Ti68  1  0.099940  0.123222  0.651706  1
  Ti  Ti69  1  0.606255  0.103985  0.653681  1
  Ti  Ti70  1  0.113161  0.616199  0.660645  1
  Ti  Ti71  1  0.608106  0.615768  0.653387  1
  Ti  Ti72  1  0.152761  0.376851  0.569607  1
  Ti  Ti73  1  0.647988  0.350489  0.581063  1
  Ti  Ti74  1  0.137533  0.864526  0.580597  1
  Ti  Ti75  1  0.649471  0.858207  0.567541  1
  Ti  Ti76  1  0.352011  0.149509  0.581063  1
  Ti  Ti77  1  0.847238  0.123147  0.569607  1
  Ti  Ti78  1  0.350528  0.641791  0.567541  1
  Ti  Ti79  1  0.862466  0.635472  0.580597  1
  Ti  Ti80  1  0.404890  0.388025  0.490936  1
  Ti  Ti81  1  0.897643  0.375774  0.491493  1
  Ti  Ti82  1  0.376413  0.909968  0.500051  1
  Ti  Ti83  1  0.908641  0.880545  0.489529  1
  Ti  Ti84  1  0.102357  0.124226  0.491493  1
  Ti  Ti85  1  0.595110  0.111974  0.490936  1
  Ti  Ti86  1  0.091359  0.619455  0.489529  1
  Ti  Ti87  1  0.623587  0.590032  0.500051  1
  Ti  Ti88  1  0.125183  0.874881  0.737568  1
  Ti  Ti89  1  0.624977  0.874958  0.737514  1
  Ti  Ti90  1  0.375017  0.625022  0.737511  1
  Ti  Ti91  1  0.874810  0.625097  0.737568  1
  Ti  Ti92  1  0.124975  0.374969  0.737649  1
  Ti  Ti93  1  0.624990  0.374965  0.737597  1
  Ti  Ti94  1  0.375002  0.125014  0.737597  1
  Ti  Ti95  1  0.875016  0.125007  0.737650  1
  Al  Al96  1  0.500000  0.750000  0.360815  1
