# generated using pymatgen
data_Ti
_symmetry_space_group_name_H-M   'P 1'
_cell_length_a   9.51302000
_cell_length_b   9.35086000
_cell_length_c   18.54723000
_cell_angle_alpha   90.00000000
_cell_angle_beta   90.00000000
_cell_angle_gamma   90.00000000
_symmetry_Int_Tables_number   1
_chemical_formula_structural   Ti
_chemical_formula_sum   Ti97
_cell_volume   1649.86732743
_cell_formula_units_Z   97
loop_
 _symmetry_equiv_pos_site_id
 _symmetry_equiv_pos_as_xyz
  1  'x, y, z'
loop_
 _atom_site_type_symbol
 _atom_site_label
 _atom_site_symmetry_multiplicity
 _atom_site_fract_x
 _atom_site_fract_y
 _atom_site_fract_z
 _atom_site_occupancy
  Ti  Ti0  1  0.150214  0.383958  0.404659  1
  Ti  Ti1  1  0.661866  0.343026  0.418133  1
  Ti  Ti2  1  0.136947  0.858997  0.418981  1
  Ti  Ti3  1  0.651880  0.859132  0.406681  1
  Ti  Ti4  1  0.146389  0.366735  0.242064  1
  Ti  Ti5  1  0.655938  0.362178  0.235044  1
  Ti  Ti6  1  0.166151  0.864467  0.233983  1
  Ti  Ti7  1  0.675936  0.904156  0.235581  1
  Ti  Ti8  1  0.166666  0.375000  0.077689  1
  Ti  Ti9  1  0.666666  0.375000  0.077689  1
  Ti  Ti10  1  0.166666  0.875000  0.077689  1
  Ti  Ti11  1  0.666666  0.875000  0.077689  1
  Ti  Ti12  1  0.408124  0.376737  0.329572  1
  Ti  Ti13  1  0.894762  0.375610  0.325889  1
  Ti  Ti14  1  0.350706  0.939213  0.338006  1
  Ti  Ti15  1  0.912470  0.871698  0.319284  1
  Ti  Ti16  1  0.416667  0.375000  0.155379  1
  Ti  Ti17  1  0.916667  0.375000  0.155379  1
  Ti  Ti18  1  0.416667  0.875000  0.155379  1
  Ti  Ti19  1  0.916667  0.875000  0.155379  1
  Ti  Ti20  1  0.416667  0.375000  0.000000  1
  Ti  Ti21  1  0.916667  0.375000  0.000000  1
  Ti  Ti22  1  0.416667  0.875000  0.000000  1
  Ti  Ti23  1  0.916667  0.875000  0.000000  1
  Ti  Ti24  1  0.105238  0.124390  0.325888  1
  Ti  Ti25  1  0.591876  0.123263  0.329571  1
  Ti  Ti26  1  0.087530  0.628302  0.319283  1
  Ti  Ti27  1  0.649294  0.560787  0.338005  1
  Ti  Ti28  1  0.083333  0.125000  0.155379  1
  Ti  Ti29  1  0.583333  0.125000  0.155379  1
  Ti  Ti30  1  0.083333  0.625000  0.155379  1
  Ti  Ti31  1  0.583333  0.625000  0.155379  1
  Ti  Ti32  1  0.083333  0.125000  0.000000  1
  Ti  Ti33  1  0.583333  0.125000  0.000000  1
  Ti  Ti34  1  0.083333  0.625000  0.000000  1
  Ti  Ti35  1  0.583333  0.625000  0.000000  1
  Ti  Ti36  1  0.338133  0.156974  0.418133  1
  Ti  Ti37  1  0.849785  0.116042  0.404659  1
  Ti  Ti38  1  0.348119  0.640868  0.406681  1
  Ti  Ti39  1  0.863052  0.641003  0.418981  1
  Ti  Ti40  1  0.344061  0.137822  0.235044  1
  Ti  Ti41  1  0.853610  0.133265  0.242064  1
  Ti  Ti42  1  0.324063  0.595844  0.235581  1
  Ti  Ti43  1  0.833848  0.635533  0.233983  1
  Ti  Ti44  1  0.333333  0.125000  0.077689  1
  Ti  Ti45  1  0.833333  0.125000  0.077689  1
  Ti  Ti46  1  0.333333  0.625000  0.077689  1
  Ti  Ti47  1  0.833333  0.625000  0.077689  1
  Ti  Ti48  1  0.375000  0.375000  0.823738  1
  Ti  Ti49  1  0.875000  0.375000  0.823738  1
  Ti  Ti50  1  0.375000  0.875000  0.823738  1
  Ti  Ti51  1  0.875000  0.875000  0.823738  1
  Ti  Ti52  1  0.125000  0.125000  0.823738  1
  Ti  Ti53  1  0.625000  0.125000  0.823738  1
  Ti  Ti54  1  0.125000  0.625000  0.823738  1
  Ti  Ti55  1  0.625000  0.625000  0.823738  1
  Ti  Ti56  1  0.125000  0.375000  0.910084  1
  Ti  Ti57  1  0.625000  0.375000  0.910084  1
  Ti  Ti58  1  0.125000  0.875000  0.910084  1
  Ti  Ti59  1  0.625000  0.875000  0.910084  1
  Ti  Ti60  1  0.375000  0.125000  0.910084  1
  Ti  Ti61  1  0.875000  0.125000  0.910084  1
  Ti  Ti62  1  0.375000  0.625000  0.910084  1
  Ti  Ti63  1  0.875000  0.625000  0.910084  1
  Ti  Ti64  1  0.398311  0.385171  0.652399  1
  Ti  Ti65  1  0.900083  0.382271  0.654252  1
  Ti  Ti66  1  0.400308  0.881154  0.651191  1
  Ti  Ti67  1  0.894876  0.883040  0.653699  1
  Ti  Ti68  1  0.099917  0.117729  0.654252  1
  Ti  Ti69  1  0.601689  0.114829  0.652399  1
  Ti  Ti70  1  0.105124  0.616960  0.653699  1
  Ti  Ti71  1  0.599692  0.618846  0.651191  1
  Ti  Ti72  1  0.154566  0.364420  0.574333  1
  Ti  Ti73  1  0.651431  0.366006  0.576333  1
  Ti  Ti74  1  0.153665  0.870949  0.576350  1
  Ti  Ti75  1  0.652525  0.864680  0.569181  1
  Ti  Ti76  1  0.348569  0.133994  0.576333  1
  Ti  Ti77  1  0.845434  0.135580  0.574333  1
  Ti  Ti78  1  0.347475  0.635320  0.569181  1
  Ti  Ti79  1  0.846335  0.629051  0.576350  1
  Ti  Ti80  1  0.402836  0.389481  0.492730  1
  Ti  Ti81  1  0.905314  0.375870  0.490796  1
  Ti  Ti82  1  0.400265  0.888772  0.489685  1
  Ti  Ti83  1  0.904896  0.885500  0.498998  1
  Ti  Ti84  1  0.094686  0.124130  0.490796  1
  Ti  Ti85  1  0.597164  0.110519  0.492730  1
  Ti  Ti86  1  0.095104  0.614500  0.498998  1
  Ti  Ti87  1  0.599735  0.611228  0.489685  1
  Ti  Ti88  1  0.125000  0.875000  0.737395  1
  Ti  Ti89  1  0.625000  0.875000  0.737395  1
  Ti  Ti90  1  0.375000  0.625000  0.737395  1
  Ti  Ti91  1  0.875000  0.625000  0.737395  1
  Ti  Ti92  1  0.125000  0.375000  0.737395  1
  Ti  Ti93  1  0.625000  0.375000  0.737395  1
  Ti  Ti94  1  0.375000  0.125000  0.737395  1
  Ti  Ti95  1  0.875000  0.125000  0.737395  1
  Ti  Ti96  1  0.500000  0.750000  0.288845  1
