# generated using pymatgen
data_ZrTi96
_symmetry_space_group_name_H-M   'P 1'
_cell_length_a   9.51302000
_cell_length_b   9.35086000
_cell_length_c   18.54723000
_cell_angle_alpha   90.00000000
_cell_angle_beta   90.00000000
_cell_angle_gamma   90.00000000
_symmetry_Int_Tables_number   1
_chemical_formula_structural   ZrTi96
_chemical_formula_sum   'Zr1 Ti96'
_cell_volume   1649.86732743
_cell_formula_units_Z   1
loop_
 _symmetry_equiv_pos_site_id
 _symmetry_equiv_pos_as_xyz
  1  'x, y, z'
loop_
 _atom_site_type_symbol
 _atom_site_label
 _atom_site_symmetry_multiplicity
 _atom_site_fract_x
 _atom_site_fract_y
 _atom_site_fract_z
 _atom_site_occupancy
  Ti  Ti0  1  0.144992  0.370225  0.405884  1
  Ti  Ti1  1  0.638016  0.341478  0.407696  1
  Ti  Ti2  1  0.141379  0.852049  0.399535  1
  Ti  Ti3  1  0.688324  0.902621  0.396339  1
  Ti  Ti4  1  0.155061  0.370763  0.237799  1
  Ti  Ti5  1  0.659035  0.369234  0.235438  1
  Ti  Ti6  1  0.161046  0.872795  0.233497  1
  Ti  Ti7  1  0.668104  0.879870  0.233417  1
  Ti  Ti8  1  0.166647  0.375051  0.077536  1
  Ti  Ti9  1  0.666717  0.374929  0.077499  1
  Ti  Ti10  1  0.166680  0.875005  0.077512  1
  Ti  Ti11  1  0.666608  0.874997  0.077538  1
  Ti  Ti12  1  0.407989  0.380775  0.315234  1
  Ti  Ti13  1  0.896738  0.373759  0.323959  1
  Ti  Ti14  1  0.382696  0.905288  0.323931  1
  Ti  Ti15  1  0.916773  0.881481  0.313148  1
  Ti  Ti16  1  0.416720  0.375060  0.155101  1
  Ti  Ti17  1  0.916660  0.374831  0.155078  1
  Ti  Ti18  1  0.416595  0.874920  0.155300  1
  Ti  Ti19  1  0.916695  0.875226  0.154979  1
  Ti  Ti20  1  0.416677  0.375024  -0.000083  1
  Ti  Ti21  1  0.916645  0.374980  -0.000106  1
  Ti  Ti22  1  0.416677  0.874975  -0.000040  1
  Ti  Ti23  1  0.916659  0.875004  -0.000144  1
  Ti  Ti24  1  0.103262  0.126242  0.323958  1
  Ti  Ti25  1  0.592011  0.119226  0.315233  1
  Ti  Ti26  1  0.083227  0.618521  0.313147  1
  Ti  Ti27  1  0.617304  0.594714  0.323931  1
  Ti  Ti28  1  0.083340  0.125185  0.155076  1
  Ti  Ti29  1  0.583281  0.124957  0.155102  1
  Ti  Ti30  1  0.083304  0.624798  0.154981  1
  Ti  Ti31  1  0.583406  0.625091  0.155298  1
  Ti  Ti32  1  0.083358  0.125021  -0.000107  1
  Ti  Ti33  1  0.583323  0.124980  -0.000082  1
  Ti  Ti34  1  0.083341  0.625007  -0.000143  1
  Ti  Ti35  1  0.583325  0.625030  -0.000041  1
  Ti  Ti36  1  0.361983  0.158522  0.407696  1
  Ti  Ti37  1  0.855007  0.129775  0.405884  1
  Ti  Ti38  1  0.311675  0.597379  0.396339  1
  Ti  Ti39  1  0.858620  0.647951  0.399535  1
  Ti  Ti40  1  0.340964  0.130770  0.235438  1
  Ti  Ti41  1  0.844939  0.129241  0.237799  1
  Ti  Ti42  1  0.331895  0.620133  0.233417  1
  Ti  Ti43  1  0.838953  0.627209  0.233496  1
  Ti  Ti44  1  0.333283  0.125081  0.077499  1
  Ti  Ti45  1  0.833352  0.124960  0.077537  1
  Ti  Ti46  1  0.333391  0.625017  0.077537  1
  Ti  Ti47  1  0.833320  0.625010  0.077512  1
  Ti  Ti48  1  0.374961  0.375048  0.823828  1
  Ti  Ti49  1  0.874958  0.375018  0.823887  1
  Ti  Ti50  1  0.375004  0.874875  0.823749  1
  Ti  Ti51  1  0.875039  0.875027  0.823696  1
  Ti  Ti52  1  0.125051  0.124973  0.823888  1
  Ti  Ti53  1  0.625039  0.124941  0.823828  1
  Ti  Ti54  1  0.124966  0.624967  0.823698  1
  Ti  Ti55  1  0.625004  0.625122  0.823748  1
  Ti  Ti56  1  0.125045  0.375098  0.910075  1
  Ti  Ti57  1  0.624971  0.375098  0.910059  1
  Ti  Ti58  1  0.125069  0.874917  0.910024  1
  Ti  Ti59  1  0.624976  0.874952  0.909997  1
  Ti  Ti60  1  0.375037  0.124896  0.910060  1
  Ti  Ti61  1  0.874961  0.124895  0.910076  1
  Ti  Ti62  1  0.375028  0.625047  0.909997  1
  Ti  Ti63  1  0.874935  0.625081  0.910022  1
  Ti  Ti64  1  0.392972  0.387929  0.655078  1
  Ti  Ti65  1  0.895118  0.369873  0.650822  1
  Ti  Ti66  1  0.395594  0.891626  0.648184  1
  Ti  Ti67  1  0.883043  0.883814  0.667803  1
  Ti  Ti68  1  0.104879  0.130122  0.650822  1
  Ti  Ti69  1  0.607026  0.112068  0.655077  1
  Ti  Ti70  1  0.116956  0.616180  0.667804  1
  Ti  Ti71  1  0.604404  0.608369  0.648185  1
  Ti  Ti72  1  0.149357  0.381116  0.569508  1
  Ti  Ti73  1  0.649629  0.342181  0.573098  1
  Ti  Ti74  1  0.125768  0.865117  0.586138  1
  Ti  Ti75  1  0.654494  0.858224  0.576847  1
  Ti  Ti76  1  0.350371  0.157818  0.573098  1
  Ti  Ti77  1  0.850642  0.118883  0.569507  1
  Ti  Ti78  1  0.345505  0.641774  0.576847  1
  Ti  Ti79  1  0.874231  0.634880  0.586138  1
  Ti  Ti80  1  0.409009  0.404259  0.495942  1
  Ti  Ti81  1  0.899489  0.372454  0.487245  1
  Ti  Ti82  1  0.333912  0.926208  0.497192  1
  Ti  Ti83  1  0.909903  0.878344  0.489630  1
  Ti  Ti84  1  0.100511  0.127546  0.487245  1
  Ti  Ti85  1  0.590990  0.095741  0.495942  1
  Ti  Ti86  1  0.090096  0.621655  0.489630  1
  Ti  Ti87  1  0.666088  0.573792  0.497192  1
  Ti  Ti88  1  0.125017  0.874790  0.737582  1
  Ti  Ti89  1  0.625370  0.875179  0.737498  1
  Ti  Ti90  1  0.374625  0.624809  0.737504  1
  Ti  Ti91  1  0.874974  0.625193  0.737579  1
  Ti  Ti92  1  0.124994  0.374997  0.737681  1
  Ti  Ti93  1  0.624936  0.375006  0.737724  1
  Ti  Ti94  1  0.375052  0.124962  0.737723  1
  Ti  Ti95  1  0.874995  0.124976  0.737681  1
  Zr  Zr96  1  0.500000  0.750000  0.420383  1
