# generated using pymatgen
data_Ti
_symmetry_space_group_name_H-M   'P 1'
_cell_length_a   9.51302000
_cell_length_b   9.35086000
_cell_length_c   18.54723000
_cell_angle_alpha   90.00000000
_cell_angle_beta   90.00000000
_cell_angle_gamma   90.00000000
_symmetry_Int_Tables_number   1
_chemical_formula_structural   Ti
_chemical_formula_sum   Ti97
_cell_volume   1649.86732743
_cell_formula_units_Z   97
loop_
 _symmetry_equiv_pos_site_id
 _symmetry_equiv_pos_as_xyz
  1  'x, y, z'
loop_
 _atom_site_type_symbol
 _atom_site_label
 _atom_site_symmetry_multiplicity
 _atom_site_fract_x
 _atom_site_fract_y
 _atom_site_fract_z
 _atom_site_occupancy
  Ti  Ti0  1  0.150576  0.374767  0.402151  1
  Ti  Ti1  1  0.658962  0.355812  0.392543  1
  Ti  Ti2  1  0.146444  0.866342  0.397930  1
  Ti  Ti3  1  0.658190  0.862611  0.407469  1
  Ti  Ti4  1  0.162160  0.370844  0.236272  1
  Ti  Ti5  1  0.658475  0.374179  0.234932  1
  Ti  Ti6  1  0.161645  0.873891  0.235792  1
  Ti  Ti7  1  0.660152  0.872542  0.235357  1
  Ti  Ti8  1  0.166658  0.375012  0.077675  1
  Ti  Ti9  1  0.666674  0.374996  0.077669  1
  Ti  Ti10  1  0.166664  0.875005  0.077688  1
  Ti  Ti11  1  0.666670  0.875000  0.077688  1
  Ti  Ti12  1  0.407772  0.384715  0.317231  1
  Ti  Ti13  1  0.910070  0.376817  0.318180  1
  Ti  Ti14  1  0.404145  0.877782  0.320373  1
  Ti  Ti15  1  0.905512  0.877867  0.315820  1
  Ti  Ti16  1  0.416665  0.374979  0.155307  1
  Ti  Ti17  1  0.916676  0.374989  0.155318  1
  Ti  Ti18  1  0.416668  0.875041  0.155329  1
  Ti  Ti19  1  0.916679  0.874984  0.155336  1
  Ti  Ti20  1  0.416660  0.375012  0.000001  1
  Ti  Ti21  1  0.916661  0.375010  -0.000004  1
  Ti  Ti22  1  0.416664  0.875001  -0.000012  1
  Ti  Ti23  1  0.916664  0.874992  -0.000010  1
  Ti  Ti24  1  0.089930  0.123183  0.318179  1
  Ti  Ti25  1  0.592228  0.115286  0.317230  1
  Ti  Ti26  1  0.094488  0.622133  0.315819  1
  Ti  Ti27  1  0.595855  0.622218  0.320372  1
  Ti  Ti28  1  0.083323  0.125014  0.155318  1
  Ti  Ti29  1  0.583335  0.125025  0.155307  1
  Ti  Ti30  1  0.083320  0.625020  0.155336  1
  Ti  Ti31  1  0.583332  0.624964  0.155330  1
  Ti  Ti32  1  0.083340  0.124993  -0.000005  1
  Ti  Ti33  1  0.583340  0.124992  0.000000  1
  Ti  Ti34  1  0.083336  0.625013  -0.000009  1
  Ti  Ti35  1  0.583337  0.625005  -0.000011  1
  Ti  Ti36  1  0.341037  0.144188  0.392543  1
  Ti  Ti37  1  0.849423  0.125233  0.402151  1
  Ti  Ti38  1  0.341809  0.637389  0.407469  1
  Ti  Ti39  1  0.853555  0.633658  0.397930  1
  Ti  Ti40  1  0.341524  0.125822  0.234932  1
  Ti  Ti41  1  0.837839  0.129156  0.236272  1
  Ti  Ti42  1  0.339847  0.627459  0.235358  1
  Ti  Ti43  1  0.838354  0.626110  0.235792  1
  Ti  Ti44  1  0.333325  0.125007  0.077669  1
  Ti  Ti45  1  0.833341  0.124991  0.077675  1
  Ti  Ti46  1  0.333329  0.625005  0.077689  1
  Ti  Ti47  1  0.833335  0.624999  0.077689  1
  Ti  Ti48  1  0.374993  0.374994  0.823866  1
  Ti  Ti49  1  0.874983  0.374951  0.823828  1
  Ti  Ti50  1  0.375048  0.875070  0.823780  1
  Ti  Ti51  1  0.874936  0.874999  0.823777  1
  Ti  Ti52  1  0.125022  0.125046  0.823827  1
  Ti  Ti53  1  0.625010  0.125007  0.823866  1
  Ti  Ti54  1  0.125063  0.625000  0.823778  1
  Ti  Ti55  1  0.624954  0.624927  0.823782  1
  Ti  Ti56  1  0.125012  0.375028  0.910123  1
  Ti  Ti57  1  0.625006  0.375005  0.910146  1
  Ti  Ti58  1  0.125031  0.874995  0.910094  1
  Ti  Ti59  1  0.624991  0.874993  0.910114  1
  Ti  Ti60  1  0.374995  0.124994  0.910145  1
  Ti  Ti61  1  0.874992  0.124973  0.910122  1
  Ti  Ti62  1  0.375011  0.625007  0.910114  1
  Ti  Ti63  1  0.874972  0.625005  0.910094  1
  Ti  Ti64  1  0.384335  0.372313  0.667633  1
  Ti  Ti65  1  0.884749  0.388073  0.647712  1
  Ti  Ti66  1  0.376396  0.889160  0.662192  1
  Ti  Ti67  1  0.902118  0.880233  0.653924  1
  Ti  Ti68  1  0.115250  0.111926  0.647711  1
  Ti  Ti69  1  0.615665  0.127686  0.667633  1
  Ti  Ti70  1  0.097881  0.619765  0.653925  1
  Ti  Ti71  1  0.623603  0.610837  0.662193  1
  Ti  Ti72  1  0.141659  0.361532  0.571725  1
  Ti  Ti73  1  0.634156  0.361011  0.576475  1
  Ti  Ti74  1  0.159203  0.854279  0.566759  1
  Ti  Ti75  1  0.672849  0.913063  0.573609  1
  Ti  Ti76  1  0.365844  0.138989  0.576475  1
  Ti  Ti77  1  0.858340  0.138468  0.571725  1
  Ti  Ti78  1  0.327151  0.586936  0.573609  1
  Ti  Ti79  1  0.840797  0.645720  0.566759  1
  Ti  Ti80  1  0.399831  0.373760  0.480652  1
  Ti  Ti81  1  0.887793  0.381297  0.488662  1
  Ti  Ti82  1  0.376330  0.921186  0.475710  1
  Ti  Ti83  1  0.913086  0.885519  0.486160  1
  Ti  Ti84  1  0.112207  0.118703  0.488662  1
  Ti  Ti85  1  0.600169  0.126240  0.480652  1
  Ti  Ti86  1  0.086914  0.614481  0.486160  1
  Ti  Ti87  1  0.623670  0.578813  0.475710  1
  Ti  Ti88  1  0.125428  0.875158  0.737530  1
  Ti  Ti89  1  0.625152  0.875129  0.737553  1
  Ti  Ti90  1  0.374843  0.624862  0.737556  1
  Ti  Ti91  1  0.874570  0.624836  0.737536  1
  Ti  Ti92  1  0.125051  0.374926  0.737548  1
  Ti  Ti93  1  0.625044  0.374785  0.737624  1
  Ti  Ti94  1  0.374949  0.125202  0.737621  1
  Ti  Ti95  1  0.874947  0.125066  0.737547  1
  Ti  Ti96  1  0.500000  0.750000  0.549225  1
