# generated using pymatgen
data_ZrTi96
_symmetry_space_group_name_H-M   'P 1'
_cell_length_a   9.51302000
_cell_length_b   9.35086000
_cell_length_c   18.54723000
_cell_angle_alpha   90.00000000
_cell_angle_beta   90.00000000
_cell_angle_gamma   90.00000000
_symmetry_Int_Tables_number   1
_chemical_formula_structural   ZrTi96
_chemical_formula_sum   'Zr1 Ti96'
_cell_volume   1649.86732743
_cell_formula_units_Z   1
loop_
 _symmetry_equiv_pos_site_id
 _symmetry_equiv_pos_as_xyz
  1  'x, y, z'
loop_
 _atom_site_type_symbol
 _atom_site_label
 _atom_site_symmetry_multiplicity
 _atom_site_fract_x
 _atom_site_fract_y
 _atom_site_fract_z
 _atom_site_occupancy
  Ti  Ti0  1  0.149920  0.373803  0.405120  1
  Ti  Ti1  1  0.663665  0.409329  0.415717  1
  Ti  Ti2  1  0.159617  0.870041  0.400454  1
  Ti  Ti3  1  0.568298  0.938856  0.419408  1
  Ti  Ti4  1  0.149633  0.371213  0.239859  1
  Ti  Ti5  1  0.658353  0.373500  0.229655  1
  Ti  Ti6  1  0.168976  0.884100  0.232603  1
  Ti  Ti7  1  0.663156  0.883926  0.238279  1
  Ti  Ti8  1  0.166666  0.375000  0.077689  1
  Ti  Ti9  1  0.666666  0.375000  0.077689  1
  Ti  Ti10  1  0.166666  0.875000  0.077689  1
  Ti  Ti11  1  0.666666  0.875000  0.077689  1
  Ti  Ti12  1  0.395800  0.366727  0.326046  1
  Ti  Ti13  1  0.883541  0.349401  0.325835  1
  Ti  Ti14  1  0.406898  0.857057  0.309901  1
  Ti  Ti15  1  0.934931  0.907646  0.310976  1
  Ti  Ti16  1  0.416667  0.375000  0.155379  1
  Ti  Ti17  1  0.916667  0.375000  0.155379  1
  Ti  Ti18  1  0.416667  0.875000  0.155379  1
  Ti  Ti19  1  0.916667  0.875000  0.155379  1
  Ti  Ti20  1  0.416667  0.375000  0.000000  1
  Ti  Ti21  1  0.916667  0.375000  0.000000  1
  Ti  Ti22  1  0.416667  0.875000  0.000000  1
  Ti  Ti23  1  0.916667  0.875000  0.000000  1
  Ti  Ti24  1  0.104200  0.133273  0.326045  1
  Ti  Ti25  1  0.616459  0.150599  0.325834  1
  Ti  Ti26  1  0.093102  0.642943  0.309900  1
  Ti  Ti27  1  0.565069  0.592354  0.310975  1
  Ti  Ti28  1  0.083333  0.125000  0.155379  1
  Ti  Ti29  1  0.583333  0.125000  0.155379  1
  Ti  Ti30  1  0.083333  0.625000  0.155379  1
  Ti  Ti31  1  0.583333  0.625000  0.155379  1
  Ti  Ti32  1  0.083333  0.125000  0.000000  1
  Ti  Ti33  1  0.583333  0.125000  0.000000  1
  Ti  Ti34  1  0.083333  0.625000  0.000000  1
  Ti  Ti35  1  0.583333  0.625000  0.000000  1
  Ti  Ti36  1  0.350079  0.126197  0.405120  1
  Ti  Ti37  1  0.836334  0.090671  0.415717  1
  Ti  Ti38  1  0.340382  0.629959  0.400454  1
  Ti  Ti39  1  0.931701  0.561144  0.419408  1
  Ti  Ti40  1  0.350366  0.128787  0.239859  1
  Ti  Ti41  1  0.841646  0.126500  0.229655  1
  Ti  Ti42  1  0.331023  0.615900  0.232603  1
  Ti  Ti43  1  0.836843  0.616074  0.238279  1
  Ti  Ti44  1  0.333333  0.125000  0.077689  1
  Ti  Ti45  1  0.833333  0.125000  0.077689  1
  Ti  Ti46  1  0.333333  0.625000  0.077689  1
  Ti  Ti47  1  0.833333  0.625000  0.077689  1
  Ti  Ti48  1  0.375000  0.375000  0.823738  1
  Ti  Ti49  1  0.875000  0.375000  0.823738  1
  Ti  Ti50  1  0.375000  0.875000  0.823738  1
  Ti  Ti51  1  0.875000  0.875000  0.823738  1
  Ti  Ti52  1  0.125000  0.125000  0.823738  1
  Ti  Ti53  1  0.625000  0.125000  0.823738  1
  Ti  Ti54  1  0.125000  0.625000  0.823738  1
  Ti  Ti55  1  0.625000  0.625000  0.823738  1
  Ti  Ti56  1  0.125000  0.375000  0.910084  1
  Ti  Ti57  1  0.625000  0.375000  0.910084  1
  Ti  Ti58  1  0.125000  0.875000  0.910084  1
  Ti  Ti59  1  0.625000  0.875000  0.910084  1
  Ti  Ti60  1  0.375000  0.125000  0.910084  1
  Ti  Ti61  1  0.875000  0.125000  0.910084  1
  Ti  Ti62  1  0.375000  0.625000  0.910084  1
  Ti  Ti63  1  0.875000  0.625000  0.910084  1
  Ti  Ti64  1  0.392978  0.359107  0.655899  1
  Ti  Ti65  1  0.893941  0.366233  0.656767  1
  Ti  Ti66  1  0.399458  0.869905  0.656652  1
  Ti  Ti67  1  0.889667  0.859817  0.651001  1
  Ti  Ti68  1  0.107022  0.140893  0.655899  1
  Ti  Ti69  1  0.606059  0.133767  0.656767  1
  Ti  Ti70  1  0.100542  0.630095  0.656652  1
  Ti  Ti71  1  0.610333  0.640183  0.651001  1
  Ti  Ti72  1  0.145833  0.375274  0.569137  1
  Ti  Ti73  1  0.644212  0.387892  0.576247  1
  Ti  Ti74  1  0.149375  0.892932  0.586498  1
  Ti  Ti75  1  0.649563  0.898892  0.566148  1
  Ti  Ti76  1  0.354167  0.124726  0.569137  1
  Ti  Ti77  1  0.855788  0.112108  0.576247  1
  Ti  Ti78  1  0.350625  0.607068  0.586498  1
  Ti  Ti79  1  0.850437  0.601108  0.566148  1
  Ti  Ti80  1  0.398952  0.387987  0.483845  1
  Ti  Ti81  1  0.902427  0.332447  0.489968  1
  Ti  Ti82  1  0.373740  0.856480  0.504501  1
  Ti  Ti83  1  0.908123  0.855545  0.496199  1
  Ti  Ti84  1  0.101048  0.112013  0.483845  1
  Ti  Ti85  1  0.597573  0.167553  0.489968  1
  Ti  Ti86  1  0.126260  0.643520  0.504501  1
  Ti  Ti87  1  0.591877  0.644455  0.496199  1
  Ti  Ti88  1  0.125000  0.875000  0.737395  1
  Ti  Ti89  1  0.625000  0.875000  0.737395  1
  Ti  Ti90  1  0.375000  0.625000  0.737395  1
  Ti  Ti91  1  0.875000  0.625000  0.737395  1
  Ti  Ti92  1  0.125000  0.375000  0.737395  1
  Ti  Ti93  1  0.625000  0.375000  0.737395  1
  Ti  Ti94  1  0.375000  0.125000  0.737395  1
  Ti  Ti95  1  0.875000  0.125000  0.737395  1
  Zr  Zr96  1  0.750000  0.750000  0.375598  1
