# generated using pymatgen
data_ZrTi96
_symmetry_space_group_name_H-M   'P 1'
_cell_length_a   9.51302000
_cell_length_b   9.35086000
_cell_length_c   18.54723000
_cell_angle_alpha   90.00000000
_cell_angle_beta   90.00000000
_cell_angle_gamma   90.00000000
_symmetry_Int_Tables_number   1
_chemical_formula_structural   ZrTi96
_chemical_formula_sum   'Zr1 Ti96'
_cell_volume   1649.86732743
_cell_formula_units_Z   1
loop_
 _symmetry_equiv_pos_site_id
 _symmetry_equiv_pos_as_xyz
  1  'x, y, z'
loop_
 _atom_site_type_symbol
 _atom_site_label
 _atom_site_symmetry_multiplicity
 _atom_site_fract_x
 _atom_site_fract_y
 _atom_site_fract_z
 _atom_site_occupancy
  Ti  Ti0  1  0.143516  0.364532  0.406575  1
  Ti  Ti1  1  0.630114  0.344816  0.407040  1
  Ti  Ti2  1  0.151259  0.845594  0.390554  1
  Ti  Ti3  1  0.684499  0.910460  0.392156  1
  Ti  Ti4  1  0.153677  0.370758  0.237565  1
  Ti  Ti5  1  0.663633  0.373544  0.233823  1
  Ti  Ti6  1  0.163077  0.876484  0.234611  1
  Ti  Ti7  1  0.662569  0.870086  0.235271  1
  Ti  Ti8  1  0.166666  0.375000  0.077689  1
  Ti  Ti9  1  0.666666  0.375000  0.077689  1
  Ti  Ti10  1  0.166666  0.875000  0.077689  1
  Ti  Ti11  1  0.666666  0.875000  0.077689  1
  Ti  Ti12  1  0.405473  0.374560  0.308778  1
  Ti  Ti13  1  0.888154  0.382576  0.329051  1
  Ti  Ti14  1  0.409776  0.887946  0.320253  1
  Ti  Ti15  1  0.917333  0.885975  0.310664  1
  Ti  Ti16  1  0.416667  0.375000  0.155379  1
  Ti  Ti17  1  0.916667  0.375000  0.155379  1
  Ti  Ti18  1  0.416667  0.875000  0.155379  1
  Ti  Ti19  1  0.916667  0.875000  0.155379  1
  Ti  Ti20  1  0.416667  0.375000  0.000000  1
  Ti  Ti21  1  0.916667  0.375000  0.000000  1
  Ti  Ti22  1  0.416667  0.875000  -0.000000  1
  Ti  Ti23  1  0.916667  0.875000  -0.000000  1
  Ti  Ti24  1  0.111846  0.117424  0.329050  1
  Ti  Ti25  1  0.594527  0.125440  0.308777  1
  Ti  Ti26  1  0.082667  0.614025  0.310663  1
  Ti  Ti27  1  0.590224  0.612054  0.320252  1
  Ti  Ti28  1  0.083333  0.125000  0.155379  1
  Ti  Ti29  1  0.583333  0.125000  0.155379  1
  Ti  Ti30  1  0.083333  0.625000  0.155379  1
  Ti  Ti31  1  0.583333  0.625000  0.155379  1
  Ti  Ti32  1  0.083333  0.125000  0.000000  1
  Ti  Ti33  1  0.583333  0.125000  0.000000  1
  Ti  Ti34  1  0.083333  0.625000  -0.000000  1
  Ti  Ti35  1  0.583333  0.625000  -0.000000  1
  Ti  Ti36  1  0.369885  0.155184  0.407040  1
  Ti  Ti37  1  0.856483  0.135468  0.406575  1
  Ti  Ti38  1  0.315500  0.589540  0.392156  1
  Ti  Ti39  1  0.848740  0.654406  0.390554  1
  Ti  Ti40  1  0.336366  0.126456  0.233823  1
  Ti  Ti41  1  0.846322  0.129242  0.237565  1
  Ti  Ti42  1  0.337430  0.629914  0.235271  1
  Ti  Ti43  1  0.836922  0.623516  0.234611  1
  Ti  Ti44  1  0.333333  0.125000  0.077689  1
  Ti  Ti45  1  0.833333  0.125000  0.077689  1
  Ti  Ti46  1  0.333333  0.625000  0.077689  1
  Ti  Ti47  1  0.833333  0.625000  0.077689  1
  Ti  Ti48  1  0.375000  0.375000  0.823738  1
  Ti  Ti49  1  0.875000  0.375000  0.823738  1
  Ti  Ti50  1  0.375000  0.875000  0.823738  1
  Ti  Ti51  1  0.875000  0.875000  0.823738  1
  Ti  Ti52  1  0.125000  0.125000  0.823738  1
  Ti  Ti53  1  0.625000  0.125000  0.823738  1
  Ti  Ti54  1  0.125000  0.625000  0.823738  1
  Ti  Ti55  1  0.625000  0.625000  0.823738  1
  Ti  Ti56  1  0.125000  0.375000  0.910084  1
  Ti  Ti57  1  0.625000  0.375000  0.910084  1
  Ti  Ti58  1  0.125000  0.875000  0.910084  1
  Ti  Ti59  1  0.625000  0.875000  0.910084  1
  Ti  Ti60  1  0.375000  0.125000  0.910084  1
  Ti  Ti61  1  0.875000  0.125000  0.910084  1
  Ti  Ti62  1  0.375000  0.625000  0.910084  1
  Ti  Ti63  1  0.875000  0.625000  0.910084  1
  Ti  Ti64  1  0.390696  0.390835  0.656822  1
  Ti  Ti65  1  0.894818  0.366609  0.648308  1
  Ti  Ti66  1  0.394420  0.894337  0.644394  1
  Ti  Ti67  1  0.880564  0.883642  0.671386  1
  Ti  Ti68  1  0.105182  0.133391  0.648308  1
  Ti  Ti69  1  0.609304  0.109165  0.656822  1
  Ti  Ti70  1  0.119436  0.616358  0.671386  1
  Ti  Ti71  1  0.605580  0.605663  0.644394  1
  Ti  Ti72  1  0.151230  0.389079  0.566566  1
  Ti  Ti73  1  0.647131  0.335523  0.573951  1
  Ti  Ti74  1  0.117928  0.861087  0.587643  1
  Ti  Ti75  1  0.656903  0.857328  0.577422  1
  Ti  Ti76  1  0.352869  0.164477  0.573951  1
  Ti  Ti77  1  0.848770  0.110921  0.566566  1
  Ti  Ti78  1  0.343097  0.642672  0.577422  1
  Ti  Ti79  1  0.882072  0.638913  0.587643  1
  Ti  Ti80  1  0.415355  0.410036  0.496194  1
  Ti  Ti81  1  0.899408  0.371565  0.488384  1
  Ti  Ti82  1  0.312372  0.936412  0.497305  1
  Ti  Ti83  1  0.913648  0.874966  0.482676  1
  Ti  Ti84  1  0.100592  0.128435  0.488384  1
  Ti  Ti85  1  0.584645  0.089964  0.496194  1
  Ti  Ti86  1  0.086352  0.625034  0.482676  1
  Ti  Ti87  1  0.687628  0.563588  0.497305  1
  Ti  Ti88  1  0.125000  0.875000  0.737395  1
  Ti  Ti89  1  0.625000  0.875000  0.737395  1
  Ti  Ti90  1  0.375000  0.625000  0.737395  1
  Ti  Ti91  1  0.875000  0.625000  0.737395  1
  Ti  Ti92  1  0.125000  0.375000  0.737395  1
  Ti  Ti93  1  0.625000  0.375000  0.737395  1
  Ti  Ti94  1  0.375000  0.125000  0.737395  1
  Ti  Ti95  1  0.875000  0.125000  0.737395  1
  Zr  Zr96  1  0.500000  0.750000  0.457144  1
