# generated using pymatgen
data_Ti96Al
_symmetry_space_group_name_H-M   'P 1'
_cell_length_a   9.51302000
_cell_length_b   9.35086000
_cell_length_c   18.54723000
_cell_angle_alpha   90.00000000
_cell_angle_beta   90.00000000
_cell_angle_gamma   90.00000000
_symmetry_Int_Tables_number   1
_chemical_formula_structural   Ti96Al
_chemical_formula_sum   'Ti96 Al1'
_cell_volume   1649.86732743
_cell_formula_units_Z   1
loop_
 _symmetry_equiv_pos_site_id
 _symmetry_equiv_pos_as_xyz
  1  'x, y, z'
loop_
 _atom_site_type_symbol
 _atom_site_label
 _atom_site_symmetry_multiplicity
 _atom_site_fract_x
 _atom_site_fract_y
 _atom_site_fract_z
 _atom_site_occupancy
  Ti  Ti0  1  0.136150  0.367646  0.404942  1
  Ti  Ti1  1  0.662062  0.358924  0.387776  1
  Ti  Ti2  1  0.152426  0.865170  0.400578  1
  Ti  Ti3  1  0.663905  0.875647  0.411512  1
  Ti  Ti4  1  0.162981  0.373167  0.237471  1
  Ti  Ti5  1  0.657211  0.372658  0.234006  1
  Ti  Ti6  1  0.162050  0.874723  0.234778  1
  Ti  Ti7  1  0.662532  0.872423  0.234391  1
  Ti  Ti8  1  0.166676  0.375022  0.077606  1
  Ti  Ti9  1  0.666651  0.374987  0.077607  1
  Ti  Ti10  1  0.166691  0.875012  0.077618  1
  Ti  Ti11  1  0.666645  0.874985  0.077622  1
  Ti  Ti12  1  0.405506  0.389408  0.318178  1
  Ti  Ti13  1  0.911440  0.379628  0.314582  1
  Ti  Ti14  1  0.403601  0.875584  0.317486  1
  Ti  Ti15  1  0.905583  0.876797  0.317122  1
  Ti  Ti16  1  0.416694  0.374991  0.155228  1
  Ti  Ti17  1  0.916641  0.374950  0.155220  1
  Ti  Ti18  1  0.416674  0.874994  0.155266  1
  Ti  Ti19  1  0.916701  0.875000  0.155212  1
  Ti  Ti20  1  0.416685  0.375044  -0.000058  1
  Ti  Ti21  1  0.916617  0.375020  -0.000035  1
  Ti  Ti22  1  0.416664  0.874978  -0.000082  1
  Ti  Ti23  1  0.916635  0.874986  -0.000054  1
  Ti  Ti24  1  0.088560  0.120373  0.314581  1
  Ti  Ti25  1  0.594494  0.110593  0.318177  1
  Ti  Ti26  1  0.094417  0.623204  0.317121  1
  Ti  Ti27  1  0.596399  0.624417  0.317485  1
  Ti  Ti28  1  0.083359  0.125060  0.155220  1
  Ti  Ti29  1  0.583307  0.125020  0.155228  1
  Ti  Ti30  1  0.083299  0.625013  0.155212  1
  Ti  Ti31  1  0.583327  0.625015  0.155266  1
  Ti  Ti32  1  0.083384  0.124988  -0.000034  1
  Ti  Ti33  1  0.583317  0.124967  -0.000056  1
  Ti  Ti34  1  0.083365  0.625027  -0.000053  1
  Ti  Ti35  1  0.583338  0.625035  -0.000081  1
  Ti  Ti36  1  0.337937  0.141076  0.387776  1
  Ti  Ti37  1  0.863849  0.132354  0.404942  1
  Ti  Ti38  1  0.336094  0.624353  0.411512  1
  Ti  Ti39  1  0.847573  0.634830  0.400578  1
  Ti  Ti40  1  0.342788  0.127345  0.234006  1
  Ti  Ti41  1  0.837018  0.126835  0.237471  1
  Ti  Ti42  1  0.337467  0.627579  0.234391  1
  Ti  Ti43  1  0.837949  0.625279  0.234778  1
  Ti  Ti44  1  0.333349  0.125024  0.077607  1
  Ti  Ti45  1  0.833324  0.124990  0.077606  1
  Ti  Ti46  1  0.333355  0.625026  0.077623  1
  Ti  Ti47  1  0.833309  0.625000  0.077619  1
  Ti  Ti48  1  0.375036  0.375048  0.823828  1
  Ti  Ti49  1  0.874975  0.374903  0.823898  1
  Ti  Ti50  1  0.375003  0.874985  0.823759  1
  Ti  Ti51  1  0.875010  0.874991  0.823875  1
  Ti  Ti52  1  0.125027  0.125081  0.823898  1
  Ti  Ti53  1  0.624975  0.124956  0.823830  1
  Ti  Ti54  1  0.124993  0.625010  0.823877  1
  Ti  Ti55  1  0.625003  0.625004  0.823761  1
  Ti  Ti56  1  0.125001  0.375016  0.910136  1
  Ti  Ti57  1  0.624998  0.374969  0.910088  1
  Ti  Ti58  1  0.125045  0.874990  0.910102  1
  Ti  Ti59  1  0.624969  0.874967  0.910068  1
  Ti  Ti60  1  0.375007  0.125032  0.910089  1
  Ti  Ti61  1  0.875004  0.124982  0.910135  1
  Ti  Ti62  1  0.375035  0.625033  0.910068  1
  Ti  Ti63  1  0.874962  0.625011  0.910103  1
  Ti  Ti64  1  0.381801  0.377591  0.666862  1
  Ti  Ti65  1  0.880120  0.393714  0.648809  1
  Ti  Ti66  1  0.379502  0.885081  0.664724  1
  Ti  Ti67  1  0.903652  0.881464  0.653548  1
  Ti  Ti68  1  0.119879  0.106282  0.648808  1
  Ti  Ti69  1  0.618197  0.122403  0.666862  1
  Ti  Ti70  1  0.096345  0.618529  0.653548  1
  Ti  Ti71  1  0.620497  0.614914  0.664724  1
  Ti  Ti72  1  0.130496  0.358839  0.570923  1
  Ti  Ti73  1  0.629534  0.358306  0.581727  1
  Ti  Ti74  1  0.166454  0.849016  0.567664  1
  Ti  Ti75  1  0.676051  0.920873  0.571840  1
  Ti  Ti76  1  0.370465  0.141692  0.581727  1
  Ti  Ti77  1  0.869503  0.141160  0.570923  1
  Ti  Ti78  1  0.323948  0.579125  0.571840  1
  Ti  Ti79  1  0.833545  0.650983  0.567665  1
  Ti  Ti80  1  0.396220  0.360252  0.481053  1
  Ti  Ti81  1  0.878422  0.387959  0.491638  1
  Ti  Ti82  1  0.379474  0.937599  0.477231  1
  Ti  Ti83  1  0.918205  0.886229  0.487740  1
  Ti  Ti84  1  0.121578  0.112041  0.491638  1
  Ti  Ti85  1  0.603779  0.139747  0.481053  1
  Ti  Ti86  1  0.081794  0.613770  0.487740  1
  Ti  Ti87  1  0.620526  0.562401  0.477231  1
  Ti  Ti88  1  0.125313  0.875131  0.737671  1
  Ti  Ti89  1  0.624910  0.874560  0.737630  1
  Ti  Ti90  1  0.375079  0.625419  0.737622  1
  Ti  Ti91  1  0.874677  0.624846  0.737677  1
  Ti  Ti92  1  0.124858  0.374919  0.737727  1
  Ti  Ti93  1  0.625305  0.374608  0.737597  1
  Ti  Ti94  1  0.374689  0.125374  0.737594  1
  Ti  Ti95  1  0.875129  0.125054  0.737723  1
  Al  Al96  1  0.500000  0.750000  0.530669  1
