# generated using pymatgen
data_Ti96Sn
_symmetry_space_group_name_H-M   'P 1'
_cell_length_a   9.51302000
_cell_length_b   9.35086000
_cell_length_c   18.54723000
_cell_angle_alpha   90.00000000
_cell_angle_beta   90.00000000
_cell_angle_gamma   90.00000000
_symmetry_Int_Tables_number   1
_chemical_formula_structural   Ti96Sn
_chemical_formula_sum   'Ti96 Sn1'
_cell_volume   1649.86732743
_cell_formula_units_Z   1
loop_
 _symmetry_equiv_pos_site_id
 _symmetry_equiv_pos_as_xyz
  1  'x, y, z'
loop_
 _atom_site_type_symbol
 _atom_site_label
 _atom_site_symmetry_multiplicity
 _atom_site_fract_x
 _atom_site_fract_y
 _atom_site_fract_z
 _atom_site_occupancy
  Ti  Ti0  1  0.146303  0.381625  0.401056  1
  Ti  Ti1  1  0.663105  0.346935  0.386244  1
  Ti  Ti2  1  0.137536  0.862892  0.401478  1
  Ti  Ti3  1  0.666993  0.858528  0.410972  1
  Ti  Ti4  1  0.162409  0.370198  0.237315  1
  Ti  Ti5  1  0.653686  0.372366  0.233540  1
  Ti  Ti6  1  0.164074  0.874980  0.234106  1
  Ti  Ti7  1  0.659735  0.871918  0.233410  1
  Ti  Ti8  1  0.166662  0.375019  0.077677  1
  Ti  Ti9  1  0.666674  0.374990  0.077651  1
  Ti  Ti10  1  0.166659  0.875016  0.077680  1
  Ti  Ti11  1  0.666660  0.875006  0.077665  1
  Ti  Ti12  1  0.405146  0.400733  0.321065  1
  Ti  Ti13  1  0.910348  0.381306  0.317041  1
  Ti  Ti14  1  0.397792  0.878810  0.321670  1
  Ti  Ti15  1  0.903877  0.876505  0.313401  1
  Ti  Ti16  1  0.416668  0.374969  0.155268  1
  Ti  Ti17  1  0.916685  0.374957  0.155292  1
  Ti  Ti18  1  0.416662  0.875050  0.155278  1
  Ti  Ti19  1  0.916675  0.874985  0.155298  1
  Ti  Ti20  1  0.416658  0.375017  -0.000014  1
  Ti  Ti21  1  0.916653  0.375007  -0.000007  1
  Ti  Ti22  1  0.416660  0.874999  -0.000031  1
  Ti  Ti23  1  0.916655  0.874994  -0.000019  1
  Ti  Ti24  1  0.089652  0.118695  0.317040  1
  Ti  Ti25  1  0.594854  0.099267  0.321064  1
  Ti  Ti26  1  0.096123  0.623496  0.313400  1
  Ti  Ti27  1  0.602208  0.621191  0.321669  1
  Ti  Ti28  1  0.083314  0.125049  0.155291  1
  Ti  Ti29  1  0.583333  0.125038  0.155267  1
  Ti  Ti30  1  0.083325  0.625021  0.155298  1
  Ti  Ti31  1  0.583338  0.624957  0.155278  1
  Ti  Ti32  1  0.083348  0.124997  -0.000008  1
  Ti  Ti33  1  0.583342  0.124988  -0.000014  1
  Ti  Ti34  1  0.083345  0.625014  -0.000018  1
  Ti  Ti35  1  0.583341  0.625008  -0.000030  1
  Ti  Ti36  1  0.336894  0.153065  0.386244  1
  Ti  Ti37  1  0.853696  0.118376  0.401056  1
  Ti  Ti38  1  0.333006  0.641472  0.410972  1
  Ti  Ti39  1  0.862463  0.637108  0.401478  1
  Ti  Ti40  1  0.346313  0.127635  0.233540  1
  Ti  Ti41  1  0.837590  0.129803  0.237315  1
  Ti  Ti42  1  0.340264  0.628084  0.233411  1
  Ti  Ti43  1  0.835925  0.625021  0.234106  1
  Ti  Ti44  1  0.333326  0.125015  0.077651  1
  Ti  Ti45  1  0.833337  0.124986  0.077677  1
  Ti  Ti46  1  0.333339  0.625001  0.077665  1
  Ti  Ti47  1  0.833340  0.624990  0.077680  1
  Ti  Ti48  1  0.375026  0.375012  0.823884  1
  Ti  Ti49  1  0.875000  0.374942  0.823874  1
  Ti  Ti50  1  0.375041  0.875051  0.823798  1
  Ti  Ti51  1  0.875040  0.875012  0.823815  1
  Ti  Ti52  1  0.125006  0.125051  0.823872  1
  Ti  Ti53  1  0.624980  0.124990  0.823883  1
  Ti  Ti54  1  0.124962  0.624989  0.823816  1
  Ti  Ti55  1  0.624962  0.624943  0.823800  1
  Ti  Ti56  1  0.124979  0.375030  0.910122  1
  Ti  Ti57  1  0.624994  0.375008  0.910124  1
  Ti  Ti58  1  0.125007  0.875002  0.910086  1
  Ti  Ti59  1  0.624976  0.875002  0.910075  1
  Ti  Ti60  1  0.375008  0.124993  0.910124  1
  Ti  Ti61  1  0.875025  0.124970  0.910121  1
  Ti  Ti62  1  0.375026  0.625000  0.910075  1
  Ti  Ti63  1  0.874998  0.624999  0.910087  1
  Ti  Ti64  1  0.382242  0.370966  0.670826  1
  Ti  Ti65  1  0.874065  0.398683  0.647051  1
  Ti  Ti66  1  0.380483  0.888194  0.660812  1
  Ti  Ti67  1  0.902034  0.878962  0.655375  1
  Ti  Ti68  1  0.125934  0.101316  0.647050  1
  Ti  Ti69  1  0.617757  0.129031  0.670825  1
  Ti  Ti70  1  0.097964  0.621035  0.655375  1
  Ti  Ti71  1  0.619517  0.611802  0.660813  1
  Ti  Ti72  1  0.130158  0.355444  0.574982  1
  Ti  Ti73  1  0.626092  0.350919  0.577470  1
  Ti  Ti74  1  0.166245  0.847489  0.564955  1
  Ti  Ti75  1  0.679554  0.931713  0.577876  1
  Ti  Ti76  1  0.373908  0.149080  0.577470  1
  Ti  Ti77  1  0.869842  0.144555  0.574982  1
  Ti  Ti78  1  0.320446  0.568286  0.577876  1
  Ti  Ti79  1  0.833754  0.652510  0.564955  1
  Ti  Ti80  1  0.391470  0.369605  0.478739  1
  Ti  Ti81  1  0.880592  0.380513  0.488369  1
  Ti  Ti82  1  0.369000  0.950268  0.472381  1
  Ti  Ti83  1  0.916941  0.893509  0.492395  1
  Ti  Ti84  1  0.119408  0.119487  0.488369  1
  Ti  Ti85  1  0.608530  0.130395  0.478739  1
  Ti  Ti86  1  0.083059  0.606491  0.492395  1
  Ti  Ti87  1  0.631000  0.549732  0.472381  1
  Ti  Ti88  1  0.125294  0.875227  0.737597  1
  Ti  Ti89  1  0.624990  0.875098  0.737614  1
  Ti  Ti90  1  0.375003  0.624888  0.737616  1
  Ti  Ti91  1  0.874701  0.624760  0.737603  1
  Ti  Ti92  1  0.124823  0.374922  0.737612  1
  Ti  Ti93  1  0.624998  0.374822  0.737674  1
  Ti  Ti94  1  0.374994  0.125161  0.737671  1
  Ti  Ti95  1  0.875172  0.125064  0.737609  1
  Sn  Sn96  1  0.500000  0.750000  0.531490  1
