# generated using pymatgen
data_Ti
_symmetry_space_group_name_H-M   'P 1'
_cell_length_a   9.51302000
_cell_length_b   9.35086000
_cell_length_c   18.54723000
_cell_angle_alpha   90.00000000
_cell_angle_beta   90.00000000
_cell_angle_gamma   90.00000000
_symmetry_Int_Tables_number   1
_chemical_formula_structural   Ti
_chemical_formula_sum   Ti97
_cell_volume   1649.86732743
_cell_formula_units_Z   97
loop_
 _symmetry_equiv_pos_site_id
 _symmetry_equiv_pos_as_xyz
  1  'x, y, z'
loop_
 _atom_site_type_symbol
 _atom_site_label
 _atom_site_symmetry_multiplicity
 _atom_site_fract_x
 _atom_site_fract_y
 _atom_site_fract_z
 _atom_site_occupancy
  Ti  Ti0  1  0.143779  0.367469  0.406313  1
  Ti  Ti1  1  0.645691  0.348293  0.406183  1
  Ti  Ti2  1  0.154029  0.856699  0.396084  1
  Ti  Ti3  1  0.675198  0.898647  0.396848  1
  Ti  Ti4  1  0.159407  0.376223  0.235674  1
  Ti  Ti5  1  0.664009  0.370799  0.231365  1
  Ti  Ti6  1  0.160946  0.874247  0.234691  1
  Ti  Ti7  1  0.655108  0.864617  0.241537  1
  Ti  Ti8  1  0.166669  0.375002  0.077669  1
  Ti  Ti9  1  0.666666  0.375007  0.077673  1
  Ti  Ti10  1  0.166690  0.874991  0.077690  1
  Ti  Ti11  1  0.666676  0.875019  0.077693  1
  Ti  Ti12  1  0.404680  0.372607  0.312690  1
  Ti  Ti13  1  0.897659  0.374326  0.320343  1
  Ti  Ti14  1  0.400576  0.902860  0.320109  1
  Ti  Ti15  1  0.914809  0.882689  0.315040  1
  Ti  Ti16  1  0.416656  0.374992  0.155299  1
  Ti  Ti17  1  0.916652  0.374982  0.155309  1
  Ti  Ti18  1  0.416679  0.875019  0.155348  1
  Ti  Ti19  1  0.916740  0.874995  0.155312  1
  Ti  Ti20  1  0.416666  0.375001  -0.000006  1
  Ti  Ti21  1  0.916660  0.375002  -0.000008  1
  Ti  Ti22  1  0.416668  0.874995  0.000012  1
  Ti  Ti23  1  0.916672  0.874998  -0.000000  1
  Ti  Ti24  1  0.102341  0.125674  0.320342  1
  Ti  Ti25  1  0.595320  0.127393  0.312689  1
  Ti  Ti26  1  0.085191  0.617311  0.315039  1
  Ti  Ti27  1  0.599424  0.597140  0.320108  1
  Ti  Ti28  1  0.083348  0.125021  0.155309  1
  Ti  Ti29  1  0.583344  0.125012  0.155299  1
  Ti  Ti30  1  0.083260  0.625008  0.155312  1
  Ti  Ti31  1  0.583321  0.624984  0.155348  1
  Ti  Ti32  1  0.083340  0.124999  -0.000008  1
  Ti  Ti33  1  0.583334  0.125000  -0.000006  1
  Ti  Ti34  1  0.083327  0.625002  0.000000  1
  Ti  Ti35  1  0.583333  0.625005  0.000012  1
  Ti  Ti36  1  0.354308  0.151707  0.406183  1
  Ti  Ti37  1  0.856220  0.132532  0.406313  1
  Ti  Ti38  1  0.324801  0.601353  0.396848  1
  Ti  Ti39  1  0.845970  0.643301  0.396084  1
  Ti  Ti40  1  0.335990  0.129202  0.231365  1
  Ti  Ti41  1  0.840592  0.123777  0.235674  1
  Ti  Ti42  1  0.344891  0.635383  0.241537  1
  Ti  Ti43  1  0.839053  0.625753  0.234691  1
  Ti  Ti44  1  0.333333  0.124995  0.077673  1
  Ti  Ti45  1  0.833330  0.125000  0.077669  1
  Ti  Ti46  1  0.333323  0.624982  0.077693  1
  Ti  Ti47  1  0.833309  0.625010  0.077690  1
  Ti  Ti48  1  0.375008  0.375014  0.823789  1
  Ti  Ti49  1  0.874997  0.374988  0.823789  1
  Ti  Ti50  1  0.375001  0.874997  0.823788  1
  Ti  Ti51  1  0.874999  0.875009  0.823779  1
  Ti  Ti52  1  0.125003  0.125012  0.823789  1
  Ti  Ti53  1  0.624993  0.124984  0.823789  1
  Ti  Ti54  1  0.125002  0.624990  0.823779  1
  Ti  Ti55  1  0.625000  0.625002  0.823788  1
  Ti  Ti56  1  0.124999  0.375005  0.910098  1
  Ti  Ti57  1  0.625001  0.375003  0.910100  1
  Ti  Ti58  1  0.124998  0.875000  0.910100  1
  Ti  Ti59  1  0.624998  0.875001  0.910100  1
  Ti  Ti60  1  0.374999  0.124996  0.910100  1
  Ti  Ti61  1  0.875002  0.124995  0.910098  1
  Ti  Ti62  1  0.375003  0.624998  0.910100  1
  Ti  Ti63  1  0.875002  0.624999  0.910100  1
  Ti  Ti64  1  0.392741  0.391549  0.656480  1
  Ti  Ti65  1  0.897367  0.373854  0.648588  1
  Ti  Ti66  1  0.392654  0.888199  0.648178  1
  Ti  Ti67  1  0.883074  0.884254  0.665918  1
  Ti  Ti68  1  0.102633  0.126146  0.648588  1
  Ti  Ti69  1  0.607259  0.108451  0.656480  1
  Ti  Ti70  1  0.116925  0.615745  0.665918  1
  Ti  Ti71  1  0.607346  0.611801  0.648178  1
  Ti  Ti72  1  0.150769  0.379699  0.566900  1
  Ti  Ti73  1  0.646021  0.344327  0.577673  1
  Ti  Ti74  1  0.127154  0.859024  0.583556  1
  Ti  Ti75  1  0.654257  0.860910  0.571745  1
  Ti  Ti76  1  0.353979  0.155673  0.577673  1
  Ti  Ti77  1  0.849231  0.120301  0.566900  1
  Ti  Ti78  1  0.345743  0.639090  0.571745  1
  Ti  Ti79  1  0.872846  0.640976  0.583556  1
  Ti  Ti80  1  0.409693  0.396529  0.492169  1
  Ti  Ti81  1  0.896999  0.377748  0.488815  1
  Ti  Ti82  1  0.347237  0.922346  0.496371  1
  Ti  Ti83  1  0.909939  0.876964  0.484960  1
  Ti  Ti84  1  0.103001  0.122252  0.488815  1
  Ti  Ti85  1  0.590307  0.103471  0.492169  1
  Ti  Ti86  1  0.090061  0.623036  0.484960  1
  Ti  Ti87  1  0.652763  0.577654  0.496371  1
  Ti  Ti88  1  0.124959  0.875050  0.737478  1
  Ti  Ti89  1  0.625012  0.874957  0.737464  1
  Ti  Ti90  1  0.374987  0.625040  0.737464  1
  Ti  Ti91  1  0.875039  0.624947  0.737478  1
  Ti  Ti92  1  0.124978  0.375020  0.737472  1
  Ti  Ti93  1  0.625019  0.374929  0.737488  1
  Ti  Ti94  1  0.374979  0.125067  0.737488  1
  Ti  Ti95  1  0.875021  0.124977  0.737472  1
  Ti  Ti96  1  0.500000  0.750000  0.446496  1
