# generated using pymatgen
data_Ti96Nb
_symmetry_space_group_name_H-M   'P 1'
_cell_length_a   9.51302000
_cell_length_b   9.35086000
_cell_length_c   18.54723000
_cell_angle_alpha   90.00000000
_cell_angle_beta   90.00000000
_cell_angle_gamma   90.00000000
_symmetry_Int_Tables_number   1
_chemical_formula_structural   Ti96Nb
_chemical_formula_sum   'Ti96 Nb1'
_cell_volume   1649.86732743
_cell_formula_units_Z   1
loop_
 _symmetry_equiv_pos_site_id
 _symmetry_equiv_pos_as_xyz
  1  'x, y, z'
loop_
 _atom_site_type_symbol
 _atom_site_label
 _atom_site_symmetry_multiplicity
 _atom_site_fract_x
 _atom_site_fract_y
 _atom_site_fract_z
 _atom_site_occupancy
  Ti  Ti0  1  0.147242  0.374305  0.404940  1
  Ti  Ti1  1  0.649956  0.342296  0.400259  1
  Ti  Ti2  1  0.131895  0.858616  0.393825  1
  Ti  Ti3  1  0.669291  0.865649  0.396507  1
  Ti  Ti4  1  0.162130  0.370590  0.234947  1
  Ti  Ti5  1  0.658967  0.375331  0.234592  1
  Ti  Ti6  1  0.163775  0.873889  0.235216  1
  Ti  Ti7  1  0.656234  0.871511  0.235503  1
  Ti  Ti8  1  0.166672  0.375032  0.077661  1
  Ti  Ti9  1  0.666669  0.375011  0.077641  1
  Ti  Ti10  1  0.166666  0.874984  0.077661  1
  Ti  Ti11  1  0.666674  0.874983  0.077653  1
  Ti  Ti12  1  0.405118  0.382803  0.315588  1
  Ti  Ti13  1  0.901960  0.374003  0.319159  1
  Ti  Ti14  1  0.404336  0.889154  0.326027  1
  Ti  Ti15  1  0.909898  0.883558  0.310012  1
  Ti  Ti16  1  0.416658  0.375004  0.155310  1
  Ti  Ti17  1  0.916668  0.374991  0.155291  1
  Ti  Ti18  1  0.416669  0.874986  0.155333  1
  Ti  Ti19  1  0.916668  0.875002  0.155320  1
  Ti  Ti20  1  0.416666  0.375031  -0.000026  1
  Ti  Ti21  1  0.916642  0.375018  -0.000019  1
  Ti  Ti22  1  0.416669  0.874983  -0.000041  1
  Ti  Ti23  1  0.916646  0.874987  -0.000029  1
  Ti  Ti24  1  0.098040  0.125997  0.319158  1
  Ti  Ti25  1  0.594882  0.117197  0.315587  1
  Ti  Ti26  1  0.090102  0.616442  0.310011  1
  Ti  Ti27  1  0.595664  0.610846  0.326026  1
  Ti  Ti28  1  0.083332  0.125014  0.155291  1
  Ti  Ti29  1  0.583342  0.125000  0.155310  1
  Ti  Ti30  1  0.083332  0.625003  0.155320  1
  Ti  Ti31  1  0.583331  0.625019  0.155333  1
  Ti  Ti32  1  0.083358  0.124987  -0.000018  1
  Ti  Ti33  1  0.583335  0.124975  -0.000025  1
  Ti  Ti34  1  0.083355  0.625020  -0.000029  1
  Ti  Ti35  1  0.583332  0.625026  -0.000041  1
  Ti  Ti36  1  0.350043  0.157704  0.400259  1
  Ti  Ti37  1  0.852757  0.125695  0.404940  1
  Ti  Ti38  1  0.330708  0.634351  0.396507  1
  Ti  Ti39  1  0.868104  0.641384  0.393825  1
  Ti  Ti40  1  0.341032  0.124670  0.234592  1
  Ti  Ti41  1  0.837869  0.129410  0.234947  1
  Ti  Ti42  1  0.343765  0.628490  0.235503  1
  Ti  Ti43  1  0.836224  0.626112  0.235216  1
  Ti  Ti44  1  0.333330  0.124995  0.077642  1
  Ti  Ti45  1  0.833327  0.124973  0.077661  1
  Ti  Ti46  1  0.333325  0.625023  0.077653  1
  Ti  Ti47  1  0.833333  0.625022  0.077661  1
  Ti  Ti48  1  0.375012  0.375017  0.823852  1
  Ti  Ti49  1  0.874967  0.374962  0.823851  1
  Ti  Ti50  1  0.375023  0.874957  0.823786  1
  Ti  Ti51  1  0.875036  0.874978  0.823786  1
  Ti  Ti52  1  0.125037  0.125034  0.823850  1
  Ti  Ti53  1  0.624991  0.124983  0.823853  1
  Ti  Ti54  1  0.124966  0.625023  0.823787  1
  Ti  Ti55  1  0.624980  0.625038  0.823787  1
  Ti  Ti56  1  0.124989  0.375021  0.910132  1
  Ti  Ti57  1  0.625005  0.375001  0.910130  1
  Ti  Ti58  1  0.125008  0.874976  0.910103  1
  Ti  Ti59  1  0.625004  0.874976  0.910101  1
  Ti  Ti60  1  0.374998  0.124998  0.910130  1
  Ti  Ti61  1  0.875015  0.124979  0.910131  1
  Ti  Ti62  1  0.374999  0.625024  0.910101  1
  Ti  Ti63  1  0.874996  0.625025  0.910103  1
  Ti  Ti64  1  0.389859  0.379698  0.662784  1
  Ti  Ti65  1  0.887453  0.376710  0.646811  1
  Ti  Ti66  1  0.387335  0.893314  0.649123  1
  Ti  Ti67  1  0.888972  0.884427  0.665199  1
  Ti  Ti68  1  0.112546  0.123289  0.646811  1
  Ti  Ti69  1  0.610140  0.120299  0.662784  1
  Ti  Ti70  1  0.111027  0.615570  0.665200  1
  Ti  Ti71  1  0.612664  0.606684  0.649124  1
  Ti  Ti72  1  0.146028  0.372142  0.568855  1
  Ti  Ti73  1  0.635074  0.341565  0.571804  1
  Ti  Ti74  1  0.131661  0.856050  0.580484  1
  Ti  Ti75  1  0.665316  0.885441  0.578354  1
  Ti  Ti76  1  0.364926  0.158434  0.571804  1
  Ti  Ti77  1  0.853971  0.127858  0.568855  1
  Ti  Ti78  1  0.334684  0.614558  0.578354  1
  Ti  Ti79  1  0.868339  0.643950  0.580484  1
  Ti  Ti80  1  0.408998  0.404169  0.483255  1
  Ti  Ti81  1  0.896750  0.376433  0.488204  1
  Ti  Ti82  1  0.329139  -0.070369  0.484583  1
  Ti  Ti83  1  0.908237  0.880739  0.487666  1
  Ti  Ti84  1  0.103250  0.123567  0.488204  1
  Ti  Ti85  1  0.591002  0.095831  0.483255  1
  Ti  Ti86  1  0.091763  0.619261  0.487667  1
  Ti  Ti87  1  0.670861  0.570368  0.484583  1
  Ti  Ti88  1  0.125290  0.874973  0.737579  1
  Ti  Ti89  1  0.625116  0.874970  0.737594  1
  Ti  Ti90  1  0.374878  0.625018  0.737595  1
  Ti  Ti91  1  0.874705  0.625016  0.737582  1
  Ti  Ti92  1  0.124877  0.374860  0.737626  1
  Ti  Ti93  1  0.625048  0.374829  0.737640  1
  Ti  Ti94  1  0.374946  0.125156  0.737638  1
  Ti  Ti95  1  0.875117  0.125127  0.737623  1
  Nb  Nb96  1  0.500000  0.750000  0.503110  1
