# generated using pymatgen
data_Ti96Sn
_symmetry_space_group_name_H-M   'P 1'
_cell_length_a   9.51302000
_cell_length_b   9.35086000
_cell_length_c   18.54723000
_cell_angle_alpha   90.00000000
_cell_angle_beta   90.00000000
_cell_angle_gamma   90.00000000
_symmetry_Int_Tables_number   1
_chemical_formula_structural   Ti96Sn
_chemical_formula_sum   'Ti96 Sn1'
_cell_volume   1649.86732743
_cell_formula_units_Z   1
loop_
 _symmetry_equiv_pos_site_id
 _symmetry_equiv_pos_as_xyz
  1  'x, y, z'
loop_
 _atom_site_type_symbol
 _atom_site_label
 _atom_site_symmetry_multiplicity
 _atom_site_fract_x
 _atom_site_fract_y
 _atom_site_fract_z
 _atom_site_occupancy
  Ti  Ti0  1  0.151327  0.385215  0.404515  1
  Ti  Ti1  1  0.646232  0.328166  0.411914  1
  Ti  Ti2  1  0.120030  0.849398  0.415365  1
  Ti  Ti3  1  0.671114  0.869757  0.408813  1
  Ti  Ti4  1  0.148501  0.363390  0.239693  1
  Ti  Ti5  1  0.658639  0.370181  0.235362  1
  Ti  Ti6  1  0.162540  0.867833  0.233187  1
  Ti  Ti7  1  0.679359  0.899822  0.231082  1
  Ti  Ti8  1  0.166717  0.375110  0.077370  1
  Ti  Ti9  1  0.666704  0.374970  0.077339  1
  Ti  Ti10  1  0.166705  0.875040  0.077454  1
  Ti  Ti11  1  0.666573  0.874913  0.077462  1
  Ti  Ti12  1  0.412500  0.384717  0.320436  1
  Ti  Ti13  1  0.898409  0.369838  0.325408  1
  Ti  Ti14  1  0.335209  0.938638  0.340625  1
  Ti  Ti15  1  0.917243  0.881823  0.313381  1
  Ti  Ti16  1  0.416764  0.375091  0.154900  1
  Ti  Ti17  1  0.916787  0.374797  0.154815  1
  Ti  Ti18  1  0.416553  0.875135  0.155245  1
  Ti  Ti19  1  0.916759  0.875000  0.154827  1
  Ti  Ti20  1  0.416672  0.375043  -0.000186  1
  Ti  Ti21  1  0.916652  0.374989  -0.000242  1
  Ti  Ti22  1  0.416654  0.874978  -0.000084  1
  Ti  Ti23  1  0.916655  0.874979  -0.000210  1
  Ti  Ti24  1  0.101591  0.130164  0.325406  1
  Ti  Ti25  1  0.587499  0.115285  0.320435  1
  Ti  Ti26  1  0.082757  0.618181  0.313380  1
  Ti  Ti27  1  0.664791  0.561364  0.340625  1
  Ti  Ti28  1  0.083211  0.125239  0.154812  1
  Ti  Ti29  1  0.583236  0.124942  0.154900  1
  Ti  Ti30  1  0.083241  0.625034  0.154827  1
  Ti  Ti31  1  0.583449  0.624879  0.155246  1
  Ti  Ti32  1  0.083349  0.125022  -0.000243  1
  Ti  Ti33  1  0.583331  0.124971  -0.000186  1
  Ti  Ti34  1  0.083346  0.625030  -0.000210  1
  Ti  Ti35  1  0.583349  0.625022  -0.000084  1
  Ti  Ti36  1  0.353767  0.171835  0.411913  1
  Ti  Ti37  1  0.848672  0.114786  0.404515  1
  Ti  Ti38  1  0.328885  0.630244  0.408813  1
  Ti  Ti39  1  0.879969  0.650602  0.415365  1
  Ti  Ti40  1  0.341360  0.129826  0.235361  1
  Ti  Ti41  1  0.851498  0.136618  0.239693  1
  Ti  Ti42  1  0.320639  0.600186  0.231083  1
  Ti  Ti43  1  0.837460  0.632176  0.233187  1
  Ti  Ti44  1  0.333296  0.125055  0.077339  1
  Ti  Ti45  1  0.833282  0.124916  0.077370  1
  Ti  Ti46  1  0.333426  0.625108  0.077461  1
  Ti  Ti47  1  0.833295  0.624981  0.077454  1
  Ti  Ti48  1  0.375051  0.375105  0.823773  1
  Ti  Ti49  1  0.874933  0.374949  0.823751  1
  Ti  Ti50  1  0.375050  0.874969  0.823668  1
  Ti  Ti51  1  0.874931  0.874973  0.823789  1
  Ti  Ti52  1  0.125064  0.125025  0.823750  1
  Ti  Ti53  1  0.624960  0.124886  0.823773  1
  Ti  Ti54  1  0.125075  0.625013  0.823789  1
  Ti  Ti55  1  0.624951  0.625011  0.823668  1
  Ti  Ti56  1  0.125046  0.375078  0.910025  1
  Ti  Ti57  1  0.624997  0.375095  0.910066  1
  Ti  Ti58  1  0.125107  0.874965  0.910060  1
  Ti  Ti59  1  0.624941  0.874894  0.910129  1
  Ti  Ti60  1  0.375008  0.124889  0.910069  1
  Ti  Ti61  1  0.874962  0.124911  0.910025  1
  Ti  Ti62  1  0.375062  0.625080  0.910128  1
  Ti  Ti63  1  0.874899  0.625016  0.910061  1
  Ti  Ti64  1  0.394375  0.387134  0.656443  1
  Ti  Ti65  1  0.895976  0.381909  0.652765  1
  Ti  Ti66  1  0.394921  0.888509  0.649486  1
  Ti  Ti67  1  0.887812  0.887500  0.661457  1
  Ti  Ti68  1  0.104023  0.118085  0.652765  1
  Ti  Ti69  1  0.605622  0.112858  0.656443  1
  Ti  Ti70  1  0.112185  0.612491  0.661458  1
  Ti  Ti71  1  0.605078  0.611486  0.649487  1
  Ti  Ti72  1  0.149517  0.363170  0.574299  1
  Ti  Ti73  1  0.645981  0.352124  0.576019  1
  Ti  Ti74  1  0.138175  0.863205  0.583169  1
  Ti  Ti75  1  0.652442  0.861716  0.573997  1
  Ti  Ti76  1  0.354018  0.147874  0.576019  1
  Ti  Ti77  1  0.850482  0.136828  0.574299  1
  Ti  Ti78  1  0.347557  0.638282  0.573997  1
  Ti  Ti79  1  0.861825  0.636792  0.583170  1
  Ti  Ti80  1  0.403532  0.401521  0.493946  1
  Ti  Ti81  1  0.898386  0.373964  0.485136  1
  Ti  Ti82  1  0.365185  0.906623  0.491943  1
  Ti  Ti83  1  0.904278  0.894362  0.501866  1
  Ti  Ti84  1  0.101614  0.126035  0.485136  1
  Ti  Ti85  1  0.596468  0.098479  0.493947  1
  Ti  Ti86  1  0.095722  0.605637  0.501866  1
  Ti  Ti87  1  0.634814  0.593376  0.491943  1
  Ti  Ti88  1  0.125070  0.875280  0.737631  1
  Ti  Ti89  1  0.624677  0.874830  0.737521  1
  Ti  Ti90  1  0.375316  0.625146  0.737513  1
  Ti  Ti91  1  0.874920  0.624687  0.737637  1
  Ti  Ti92  1  0.124771  0.374877  0.737589  1
  Ti  Ti93  1  0.625085  0.374898  0.737579  1
  Ti  Ti94  1  0.374906  0.125075  0.737579  1
  Ti  Ti95  1  0.875221  0.125098  0.737584  1
  Sn  Sn96  1  0.500000  0.750001  0.335726  1
