# generated using pymatgen
data_Ti96Al
_symmetry_space_group_name_H-M   'P 1'
_cell_length_a   9.51302000
_cell_length_b   9.35086000
_cell_length_c   18.54723000
_cell_angle_alpha   90.00000000
_cell_angle_beta   90.00000000
_cell_angle_gamma   90.00000000
_symmetry_Int_Tables_number   1
_chemical_formula_structural   Ti96Al
_chemical_formula_sum   'Ti96 Al1'
_cell_volume   1649.86732743
_cell_formula_units_Z   1
loop_
 _symmetry_equiv_pos_site_id
 _symmetry_equiv_pos_as_xyz
  1  'x, y, z'
loop_
 _atom_site_type_symbol
 _atom_site_label
 _atom_site_symmetry_multiplicity
 _atom_site_fract_x
 _atom_site_fract_y
 _atom_site_fract_z
 _atom_site_occupancy
  Ti  Ti0  1  0.149286  0.379271  0.405358  1
  Ti  Ti1  1  0.647270  0.333925  0.411762  1
  Ti  Ti2  1  0.126032  0.853529  0.399999  1
  Ti  Ti3  1  0.679532  0.878494  0.389151  1
  Ti  Ti4  1  0.154134  0.367040  0.236897  1
  Ti  Ti5  1  0.660609  0.373559  0.234329  1
  Ti  Ti6  1  0.166530  0.870950  0.235421  1
  Ti  Ti7  1  0.661043  0.884132  0.235653  1
  Ti  Ti8  1  0.166560  0.374967  0.077511  1
  Ti  Ti9  1  0.666714  0.374985  0.077460  1
  Ti  Ti10  1  0.166819  0.874956  0.077564  1
  Ti  Ti11  1  0.666675  0.875076  0.077502  1
  Ti  Ti12  1  0.406642  0.376538  0.316520  1
  Ti  Ti13  1  0.895346  0.373033  0.324712  1
  Ti  Ti14  1  0.383117  0.913247  0.335225  1
  Ti  Ti15  1  0.916385  0.883889  0.308862  1
  Ti  Ti16  1  0.416636  0.374618  0.155041  1
  Ti  Ti17  1  0.916492  0.374965  0.155041  1
  Ti  Ti18  1  0.416663  0.874803  0.155386  1
  Ti  Ti19  1  0.917016  0.875260  0.154994  1
  Ti  Ti20  1  0.416660  0.375003  -0.000122  1
  Ti  Ti21  1  0.916623  0.374998  -0.000148  1
  Ti  Ti22  1  0.416702  0.874969  -0.000034  1
  Ti  Ti23  1  0.916693  0.875003  -0.000149  1
  Ti  Ti24  1  0.104655  0.126969  0.324711  1
  Ti  Ti25  1  0.593358  0.123463  0.316518  1
  Ti  Ti26  1  0.083614  0.616112  0.308861  1
  Ti  Ti27  1  0.616883  0.586754  0.335224  1
  Ti  Ti28  1  0.083510  0.125050  0.155041  1
  Ti  Ti29  1  0.583368  0.125403  0.155037  1
  Ti  Ti30  1  0.082981  0.624761  0.154996  1
  Ti  Ti31  1  0.583338  0.625203  0.155383  1
  Ti  Ti32  1  0.083380  0.125004  -0.000149  1
  Ti  Ti33  1  0.583340  0.125005  -0.000121  1
  Ti  Ti34  1  0.083305  0.625006  -0.000149  1
  Ti  Ti35  1  0.583300  0.625035  -0.000035  1
  Ti  Ti36  1  0.352729  0.166075  0.411762  1
  Ti  Ti37  1  0.850713  0.120729  0.405358  1
  Ti  Ti38  1  0.320467  0.621507  0.389151  1
  Ti  Ti39  1  0.873967  0.646471  0.399999  1
  Ti  Ti40  1  0.339391  0.126444  0.234329  1
  Ti  Ti41  1  0.845865  0.132963  0.236897  1
  Ti  Ti42  1  0.338956  0.615872  0.235654  1
  Ti  Ti43  1  0.833469  0.629054  0.235421  1
  Ti  Ti44  1  0.333286  0.125026  0.077461  1
  Ti  Ti45  1  0.833441  0.125044  0.077511  1
  Ti  Ti46  1  0.333323  0.624939  0.077502  1
  Ti  Ti47  1  0.833181  0.625056  0.077562  1
  Ti  Ti48  1  0.375025  0.375114  0.823776  1
  Ti  Ti49  1  0.874937  0.375055  0.823874  1
  Ti  Ti50  1  0.375088  0.874861  0.823708  1
  Ti  Ti51  1  0.874977  0.874969  0.823668  1
  Ti  Ti52  1  0.125073  0.124936  0.823875  1
  Ti  Ti53  1  0.624974  0.124880  0.823778  1
  Ti  Ti54  1  0.125027  0.625024  0.823669  1
  Ti  Ti55  1  0.624925  0.625140  0.823707  1
  Ti  Ti56  1  0.125060  0.375118  0.910021  1
  Ti  Ti57  1  0.624945  0.375120  0.910005  1
  Ti  Ti58  1  0.125100  0.874902  0.909987  1
  Ti  Ti59  1  0.624937  0.874937  0.909952  1
  Ti  Ti60  1  0.375065  0.124879  0.910006  1
  Ti  Ti61  1  0.874947  0.124883  0.910023  1
  Ti  Ti62  1  0.375070  0.625064  0.909953  1
  Ti  Ti63  1  0.874902  0.625098  0.909986  1
  Ti  Ti64  1  0.393751  0.385155  0.659979  1
  Ti  Ti65  1  0.893321  0.373880  0.648034  1
  Ti  Ti66  1  0.393432  0.891863  0.644725  1
  Ti  Ti67  1  0.885992  0.884921  0.667194  1
  Ti  Ti68  1  0.106676  0.126114  0.648034  1
  Ti  Ti69  1  0.606246  0.114840  0.659978  1
  Ti  Ti70  1  0.114006  0.615072  0.667195  1
  Ti  Ti71  1  0.606566  0.608131  0.644725  1
  Ti  Ti72  1  0.154020  0.376229  0.570667  1
  Ti  Ti73  1  0.639443  0.340689  0.572150  1
  Ti  Ti74  1  0.127830  0.859571  0.585106  1
  Ti  Ti75  1  0.657320  0.865585  0.579478  1
  Ti  Ti76  1  0.360556  0.159309  0.572149  1
  Ti  Ti77  1  0.845980  0.123769  0.570667  1
  Ti  Ti78  1  0.342680  0.634413  0.579479  1
  Ti  Ti79  1  0.872169  0.640427  0.585105  1
  Ti  Ti80  1  0.411610  0.417761  0.488086  1
  Ti  Ti81  1  0.904272  0.371901  0.487994  1
  Ti  Ti82  1  0.327525  0.923192  0.492878  1
  Ti  Ti83  1  0.906188  0.883850  0.492874  1
  Ti  Ti84  1  0.095727  0.128098  0.487994  1
  Ti  Ti85  1  0.588389  0.082239  0.488086  1
  Ti  Ti86  1  0.093812  0.616149  0.492874  1
  Ti  Ti87  1  0.672474  0.576807  0.492878  1
  Ti  Ti88  1  0.125001  0.874741  0.737618  1
  Ti  Ti89  1  0.625226  0.875111  0.737448  1
  Ti  Ti90  1  0.374769  0.624876  0.737451  1
  Ti  Ti91  1  0.874984  0.625236  0.737613  1
  Ti  Ti92  1  0.125081  0.375141  0.737707  1
  Ti  Ti93  1  0.624846  0.374977  0.737710  1
  Ti  Ti94  1  0.375140  0.124988  0.737708  1
  Ti  Ti95  1  0.874905  0.124828  0.737712  1
  Al  Al96  1  0.500000  0.750000  0.431735  1
