# generated using pymatgen
data_Ti96Mo
_symmetry_space_group_name_H-M   'P 1'
_cell_length_a   9.51302000
_cell_length_b   9.35086000
_cell_length_c   18.54723000
_cell_angle_alpha   90.00000000
_cell_angle_beta   90.00000000
_cell_angle_gamma   90.00000000
_symmetry_Int_Tables_number   1
_chemical_formula_structural   Ti96Mo
_chemical_formula_sum   'Ti96 Mo1'
_cell_volume   1649.86732743
_cell_formula_units_Z   1
loop_
 _symmetry_equiv_pos_site_id
 _symmetry_equiv_pos_as_xyz
  1  'x, y, z'
loop_
 _atom_site_type_symbol
 _atom_site_label
 _atom_site_symmetry_multiplicity
 _atom_site_fract_x
 _atom_site_fract_y
 _atom_site_fract_z
 _atom_site_occupancy
  Ti  Ti0  1  0.147318  0.376549  0.408082  1
  Ti  Ti1  1  0.660036  0.352348  0.420554  1
  Ti  Ti2  1  0.153822  0.862231  0.411147  1
  Ti  Ti3  1  0.657551  0.876263  0.402682  1
  Ti  Ti4  1  0.145154  0.364987  0.240116  1
  Ti  Ti5  1  0.662129  0.365816  0.231115  1
  Ti  Ti6  1  0.166794  0.863355  0.238663  1
  Ti  Ti7  1  0.677904  0.903141  0.242444  1
  Ti  Ti8  1  0.166626  0.375058  0.077404  1
  Ti  Ti9  1  0.666737  0.374977  0.077428  1
  Ti  Ti10  1  0.166719  0.875049  0.077513  1
  Ti  Ti11  1  0.666569  0.874902  0.077556  1
  Ti  Ti12  1  0.396946  0.358449  0.324437  1
  Ti  Ti13  1  0.893954  0.375296  0.326310  1
  Ti  Ti14  1  0.381112  0.942579  0.334426  1
  Ti  Ti15  1  0.919424  0.879871  0.321209  1
  Ti  Ti16  1  0.416898  0.374930  0.154976  1
  Ti  Ti17  1  0.916725  0.374801  0.154993  1
  Ti  Ti18  1  0.416453  0.875120  0.155458  1
  Ti  Ti19  1  0.917104  0.874985  0.154945  1
  Ti  Ti20  1  0.416692  0.375042  -0.000136  1
  Ti  Ti21  1  0.916633  0.374996  -0.000174  1
  Ti  Ti22  1  0.416672  0.874966  -0.000014  1
  Ti  Ti23  1  0.916662  0.874982  -0.000153  1
  Ti  Ti24  1  0.106046  0.124705  0.326309  1
  Ti  Ti25  1  0.603054  0.141552  0.324435  1
  Ti  Ti26  1  0.080576  0.620131  0.321208  1
  Ti  Ti27  1  0.618888  0.557422  0.334425  1
  Ti  Ti28  1  0.083273  0.125221  0.154990  1
  Ti  Ti29  1  0.583102  0.125094  0.154974  1
  Ti  Ti30  1  0.082894  0.625038  0.154945  1
  Ti  Ti31  1  0.583549  0.624880  0.155459  1
  Ti  Ti32  1  0.083368  0.125008  -0.000175  1
  Ti  Ti33  1  0.583308  0.124967  -0.000136  1
  Ti  Ti34  1  0.083337  0.625023  -0.000152  1
  Ti  Ti35  1  0.583330  0.625027  -0.000014  1
  Ti  Ti36  1  0.339963  0.147652  0.420553  1
  Ti  Ti37  1  0.852681  0.123451  0.408082  1
  Ti  Ti38  1  0.342448  0.623738  0.402682  1
  Ti  Ti39  1  0.846177  0.637769  0.411147  1
  Ti  Ti40  1  0.337871  0.134187  0.231114  1
  Ti  Ti41  1  0.854845  0.135017  0.240116  1
  Ti  Ti42  1  0.322094  0.596863  0.242444  1
  Ti  Ti43  1  0.833205  0.636650  0.238663  1
  Ti  Ti44  1  0.333263  0.125038  0.077428  1
  Ti  Ti45  1  0.833373  0.124958  0.077404  1
  Ti  Ti46  1  0.333429  0.625108  0.077555  1
  Ti  Ti47  1  0.833281  0.624963  0.077514  1
  Ti  Ti48  1  0.375034  0.375064  0.823761  1
  Ti  Ti49  1  0.874933  0.375028  0.823741  1
  Ti  Ti50  1  0.375036  0.874964  0.823797  1
  Ti  Ti51  1  0.874913  0.874969  0.823785  1
  Ti  Ti52  1  0.125068  0.124961  0.823741  1
  Ti  Ti53  1  0.624970  0.124929  0.823762  1
  Ti  Ti54  1  0.125090  0.625017  0.823786  1
  Ti  Ti55  1  0.624966  0.625020  0.823797  1
  Ti  Ti56  1  0.124993  0.375013  0.909996  1
  Ti  Ti57  1  0.625004  0.375010  0.910024  1
  Ti  Ti58  1  0.125028  0.874990  0.910023  1
  Ti  Ti59  1  0.624967  0.874963  0.910062  1
  Ti  Ti60  1  0.374997  0.124983  0.910025  1
  Ti  Ti61  1  0.875009  0.124980  0.909995  1
  Ti  Ti62  1  0.375033  0.625020  0.910063  1
  Ti  Ti63  1  0.874972  0.624998  0.910024  1
  Ti  Ti64  1  0.395447  0.387325  0.654282  1
  Ti  Ti65  1  0.900942  0.379892  0.653117  1
  Ti  Ti66  1  0.398478  0.879170  0.652764  1
  Ti  Ti67  1  0.894488  0.883225  0.654280  1
  Ti  Ti68  1  0.099058  0.120105  0.653117  1
  Ti  Ti69  1  0.604552  0.112672  0.654283  1
  Ti  Ti70  1  0.105511  0.616772  0.654280  1
  Ti  Ti71  1  0.601522  0.620828  0.652764  1
  Ti  Ti72  1  0.153050  0.368624  0.570432  1
  Ti  Ti73  1  0.650441  0.363964  0.579790  1
  Ti  Ti74  1  0.149615  0.868923  0.576529  1
  Ti  Ti75  1  0.655227  0.865807  0.569162  1
  Ti  Ti76  1  0.349558  0.136035  0.579790  1
  Ti  Ti77  1  0.846950  0.131375  0.570432  1
  Ti  Ti78  1  0.344772  0.634193  0.569161  1
  Ti  Ti79  1  0.850385  0.631076  0.576529  1
  Ti  Ti80  1  0.405846  0.386153  0.492881  1
  Ti  Ti81  1  0.904225  0.381364  0.491090  1
  Ti  Ti82  1  0.396675  0.890374  0.495898  1
  Ti  Ti83  1  0.907815  0.878448  0.491659  1
  Ti  Ti84  1  0.095775  0.118636  0.491090  1
  Ti  Ti85  1  0.594154  0.113847  0.492881  1
  Ti  Ti86  1  0.092185  0.621552  0.491659  1
  Ti  Ti87  1  0.603325  0.609625  0.495898  1
  Ti  Ti88  1  0.124979  0.875001  0.737488  1
  Ti  Ti89  1  0.624925  0.874904  0.737439  1
  Ti  Ti90  1  0.375072  0.625083  0.737436  1
  Ti  Ti91  1  0.875017  0.624984  0.737488  1
  Ti  Ti92  1  0.124956  0.374960  0.737475  1
  Ti  Ti93  1  0.624989  0.375005  0.737465  1
  Ti  Ti94  1  0.375008  0.124984  0.737466  1
  Ti  Ti95  1  0.875042  0.125029  0.737475  1
  Mo  Mo96  1  0.500000  0.750001  0.300656  1
