# generated using pymatgen
data_Ti96Al
_symmetry_space_group_name_H-M   'P 1'
_cell_length_a   9.51302000
_cell_length_b   9.35086000
_cell_length_c   18.54723000
_cell_angle_alpha   90.00000000
_cell_angle_beta   90.00000000
_cell_angle_gamma   90.00000000
_symmetry_Int_Tables_number   1
_chemical_formula_structural   Ti96Al
_chemical_formula_sum   'Ti96 Al1'
_cell_volume   1649.86732743
_cell_formula_units_Z   1
loop_
 _symmetry_equiv_pos_site_id
 _symmetry_equiv_pos_as_xyz
  1  'x, y, z'
loop_
 _atom_site_type_symbol
 _atom_site_label
 _atom_site_symmetry_multiplicity
 _atom_site_fract_x
 _atom_site_fract_y
 _atom_site_fract_z
 _atom_site_occupancy
  Ti  Ti0  1  0.149990  0.380890  0.405373  1
  Ti  Ti1  1  0.650027  0.333972  0.414940  1
  Ti  Ti2  1  0.125844  0.854106  0.405496  1
  Ti  Ti3  1  0.681299  0.878245  0.395816  1
  Ti  Ti4  1  0.149951  0.364898  0.238516  1
  Ti  Ti5  1  0.660083  0.371381  0.234183  1
  Ti  Ti6  1  0.167411  0.869083  0.235389  1
  Ti  Ti7  1  0.667941  0.892901  0.234801  1
  Ti  Ti8  1  0.166614  0.375068  0.077397  1
  Ti  Ti9  1  0.666731  0.374996  0.077349  1
  Ti  Ti10  1  0.166643  0.875004  0.077513  1
  Ti  Ti11  1  0.666572  0.874963  0.077548  1
  Ti  Ti12  1  0.406315  0.375391  0.319355  1
  Ti  Ti13  1  0.895442  0.372870  0.326176  1
  Ti  Ti14  1  0.367321  0.930223  0.336995  1
  Ti  Ti15  1  0.916692  0.882050  0.310537  1
  Ti  Ti16  1  0.416755  0.375012  0.154877  1
  Ti  Ti17  1  0.916738  0.374817  0.154846  1
  Ti  Ti18  1  0.416594  0.874921  0.155425  1
  Ti  Ti19  1  0.916797  0.875169  0.154860  1
  Ti  Ti20  1  0.416661  0.375050  -0.000139  1
  Ti  Ti21  1  0.916634  0.374992  -0.000201  1
  Ti  Ti22  1  0.416655  0.874957  0.000013  1
  Ti  Ti23  1  0.916640  0.874991  -0.000161  1
  Ti  Ti24  1  0.104558  0.127132  0.326174  1
  Ti  Ti25  1  0.593685  0.124610  0.319353  1
  Ti  Ti26  1  0.083308  0.617953  0.310536  1
  Ti  Ti27  1  0.632679  0.569779  0.336994  1
  Ti  Ti28  1  0.083261  0.125217  0.154843  1
  Ti  Ti29  1  0.583246  0.125023  0.154877  1
  Ti  Ti30  1  0.083202  0.624864  0.154862  1
  Ti  Ti31  1  0.583408  0.625087  0.155424  1
  Ti  Ti32  1  0.083368  0.125017  -0.000202  1
  Ti  Ti33  1  0.583340  0.124965  -0.000138  1
  Ti  Ti34  1  0.083360  0.625017  -0.000161  1
  Ti  Ti35  1  0.583347  0.625040  0.000012  1
  Ti  Ti36  1  0.349972  0.166029  0.414940  1
  Ti  Ti37  1  0.850009  0.119111  0.405373  1
  Ti  Ti38  1  0.318700  0.621756  0.395816  1
  Ti  Ti39  1  0.874155  0.645895  0.405496  1
  Ti  Ti40  1  0.339917  0.128625  0.234183  1
  Ti  Ti41  1  0.850048  0.135109  0.238516  1
  Ti  Ti42  1  0.332057  0.607105  0.234802  1
  Ti  Ti43  1  0.832588  0.630925  0.235389  1
  Ti  Ti44  1  0.333269  0.125029  0.077350  1
  Ti  Ti45  1  0.833386  0.124957  0.077397  1
  Ti  Ti46  1  0.333426  0.625056  0.077547  1
  Ti  Ti47  1  0.833357  0.625017  0.077513  1
  Ti  Ti48  1  0.375064  0.375126  0.823802  1
  Ti  Ti49  1  0.874911  0.375009  0.823846  1
  Ti  Ti50  1  0.375095  0.874913  0.823705  1
  Ti  Ti51  1  0.874910  0.874953  0.823774  1
  Ti  Ti52  1  0.125088  0.124968  0.823846  1
  Ti  Ti53  1  0.624940  0.124864  0.823803  1
  Ti  Ti54  1  0.125092  0.625030  0.823774  1
  Ti  Ti55  1  0.624909  0.625074  0.823705  1
  Ti  Ti56  1  0.125089  0.375117  0.910119  1
  Ti  Ti57  1  0.624967  0.375136  0.910165  1
  Ti  Ti58  1  0.125151  0.874917  0.910172  1
  Ti  Ti59  1  0.624925  0.874881  0.910254  1
  Ti  Ti60  1  0.375040  0.124848  0.910168  1
  Ti  Ti61  1  0.874917  0.124872  0.910120  1
  Ti  Ti62  1  0.375078  0.625089  0.910253  1
  Ti  Ti63  1  0.874853  0.625061  0.910172  1
  Ti  Ti64  1  0.394216  0.385198  0.659149  1
  Ti  Ti65  1  0.894870  0.375330  0.649679  1
  Ti  Ti66  1  0.395072  0.889836  0.646768  1
  Ti  Ti67  1  0.888561  0.884880  0.663956  1
  Ti  Ti68  1  0.105128  0.124665  0.649679  1
  Ti  Ti69  1  0.605783  0.114796  0.659149  1
  Ti  Ti70  1  0.111437  0.615113  0.663957  1
  Ti  Ti71  1  0.604928  0.610159  0.646769  1
  Ti  Ti72  1  0.154731  0.372442  0.571280  1
  Ti  Ti73  1  0.641262  0.346192  0.573335  1
  Ti  Ti74  1  0.134272  0.862599  0.583359  1
  Ti  Ti75  1  0.655856  0.865123  0.578229  1
  Ti  Ti76  1  0.358737  0.153806  0.573335  1
  Ti  Ti77  1  0.845269  0.127557  0.571280  1
  Ti  Ti78  1  0.344144  0.634875  0.578229  1
  Ti  Ti79  1  0.865728  0.637399  0.583359  1
  Ti  Ti80  1  0.409576  0.412878  0.488979  1
  Ti  Ti81  1  0.904001  0.373658  0.488433  1
  Ti  Ti82  1  0.349419  0.909638  0.493264  1
  Ti  Ti83  1  0.905681  0.884589  0.495714  1
  Ti  Ti84  1  0.095999  0.126342  0.488433  1
  Ti  Ti85  1  0.590424  0.087122  0.488979  1
  Ti  Ti86  1  0.094319  0.615411  0.495714  1
  Ti  Ti87  1  0.650581  0.590362  0.493264  1
  Ti  Ti88  1  0.125077  0.875065  0.737677  1
  Ti  Ti89  1  0.624922  0.874961  0.737503  1
  Ti  Ti90  1  0.375075  0.625023  0.737500  1
  Ti  Ti91  1  0.874914  0.624907  0.737679  1
  Ti  Ti92  1  0.124969  0.374944  0.737685  1
  Ti  Ti93  1  0.624960  0.374955  0.737661  1
  Ti  Ti94  1  0.375031  0.125020  0.737660  1
  Ti  Ti95  1  0.875024  0.125031  0.737685  1
  Al  Al96  1  0.500000  0.750000  0.379810  1
