# generated using pymatgen
data_Ti96Nb
_symmetry_space_group_name_H-M   'P 1'
_cell_length_a   9.51302000
_cell_length_b   9.35086000
_cell_length_c   18.54723000
_cell_angle_alpha   90.00000000
_cell_angle_beta   90.00000000
_cell_angle_gamma   90.00000000
_symmetry_Int_Tables_number   1
_chemical_formula_structural   Ti96Nb
_chemical_formula_sum   'Ti96 Nb1'
_cell_volume   1649.86732743
_cell_formula_units_Z   1
loop_
 _symmetry_equiv_pos_site_id
 _symmetry_equiv_pos_as_xyz
  1  'x, y, z'
loop_
 _atom_site_type_symbol
 _atom_site_label
 _atom_site_symmetry_multiplicity
 _atom_site_fract_x
 _atom_site_fract_y
 _atom_site_fract_z
 _atom_site_occupancy
  Ti  Ti0  1  0.149408  0.377446  0.403295  1
  Ti  Ti1  1  0.642888  0.331064  0.408168  1
  Ti  Ti2  1  0.121651  0.851634  0.414322  1
  Ti  Ti3  1  0.673246  0.875764  0.410379  1
  Ti  Ti4  1  0.155179  0.370195  0.239221  1
  Ti  Ti5  1  0.658201  0.362710  0.234143  1
  Ti  Ti6  1  0.155025  0.868495  0.230571  1
  Ti  Ti7  1  0.669129  0.880840  0.231856  1
  Ti  Ti8  1  0.166734  0.375087  0.077446  1
  Ti  Ti9  1  0.666669  0.375009  0.077417  1
  Ti  Ti10  1  0.166735  0.874982  0.077511  1
  Ti  Ti11  1  0.666570  0.874953  0.077602  1
  Ti  Ti12  1  0.413799  0.394581  0.320372  1
  Ti  Ti13  1  0.901106  0.372034  0.322079  1
  Ti  Ti14  1  0.335241  0.931369  0.330936  1
  Ti  Ti15  1  0.911203  0.879641  0.316065  1
  Ti  Ti16  1  0.416692  0.375137  0.155041  1
  Ti  Ti17  1  0.916767  0.374870  0.154907  1
  Ti  Ti18  1  0.416679  0.874967  0.155355  1
  Ti  Ti19  1  0.916589  0.875078  0.154930  1
  Ti  Ti20  1  0.416668  0.375045  -0.000116  1
  Ti  Ti21  1  0.916653  0.374997  -0.000176  1
  Ti  Ti22  1  0.416675  0.874964  -0.000021  1
  Ti  Ti23  1  0.916646  0.874984  -0.000145  1
  Ti  Ti24  1  0.098894  0.127968  0.322078  1
  Ti  Ti25  1  0.586201  0.105420  0.320371  1
  Ti  Ti26  1  0.088797  0.620361  0.316064  1
  Ti  Ti27  1  0.664759  0.568633  0.330936  1
  Ti  Ti28  1  0.083232  0.125161  0.154905  1
  Ti  Ti29  1  0.583307  0.124888  0.155042  1
  Ti  Ti30  1  0.083412  0.624951  0.154931  1
  Ti  Ti31  1  0.583322  0.625043  0.155355  1
  Ti  Ti32  1  0.083347  0.125014  -0.000176  1
  Ti  Ti33  1  0.583334  0.124969  -0.000115  1
  Ti  Ti34  1  0.083355  0.625025  -0.000145  1
  Ti  Ti35  1  0.583327  0.625037  -0.000023  1
  Ti  Ti36  1  0.357111  0.168936  0.408168  1
  Ti  Ti37  1  0.850591  0.122555  0.403295  1
  Ti  Ti38  1  0.326753  0.624236  0.410379  1
  Ti  Ti39  1  0.878348  0.648366  0.414322  1
  Ti  Ti40  1  0.341798  0.137296  0.234142  1
  Ti  Ti41  1  0.844820  0.129810  0.239221  1
  Ti  Ti42  1  0.330870  0.619166  0.231856  1
  Ti  Ti43  1  0.844974  0.631512  0.230571  1
  Ti  Ti44  1  0.333330  0.125013  0.077417  1
  Ti  Ti45  1  0.833266  0.124935  0.077447  1
  Ti  Ti46  1  0.333428  0.625062  0.077601  1
  Ti  Ti47  1  0.833265  0.625037  0.077511  1
  Ti  Ti48  1  0.375024  0.375080  0.823827  1
  Ti  Ti49  1  0.874951  0.374919  0.823816  1
  Ti  Ti50  1  0.375047  0.875000  0.823754  1
  Ti  Ti51  1  0.874977  0.874958  0.823840  1
  Ti  Ti52  1  0.125046  0.125061  0.823815  1
  Ti  Ti53  1  0.624985  0.124911  0.823827  1
  Ti  Ti54  1  0.125027  0.625027  0.823840  1
  Ti  Ti55  1  0.624955  0.624983  0.823754  1
  Ti  Ti56  1  0.125045  0.375088  0.910078  1
  Ti  Ti57  1  0.624988  0.375093  0.910121  1
  Ti  Ti58  1  0.125094  0.874961  0.910110  1
  Ti  Ti59  1  0.624963  0.874898  0.910181  1
  Ti  Ti60  1  0.375016  0.124893  0.910123  1
  Ti  Ti61  1  0.874960  0.124903  0.910079  1
  Ti  Ti62  1  0.375039  0.625080  0.910179  1
  Ti  Ti63  1  0.874911  0.625022  0.910111  1
  Ti  Ti64  1  0.394975  0.383827  0.655741  1
  Ti  Ti65  1  0.897885  0.382528  0.652054  1
  Ti  Ti66  1  0.396454  0.887009  0.651922  1
  Ti  Ti67  1  0.887487  0.887174  0.659547  1
  Ti  Ti68  1  0.102114  0.117467  0.652054  1
  Ti  Ti69  1  0.605024  0.116167  0.655741  1
  Ti  Ti70  1  0.112511  0.612820  0.659547  1
  Ti  Ti71  1  0.603546  0.612987  0.651923  1
  Ti  Ti72  1  0.150029  0.361509  0.573976  1
  Ti  Ti73  1  0.648320  0.359375  0.575076  1
  Ti  Ti74  1  0.140622  0.863239  0.579946  1
  Ti  Ti75  1  0.646672  0.860710  0.573702  1
  Ti  Ti76  1  0.351680  0.140623  0.575076  1
  Ti  Ti77  1  0.849971  0.138489  0.573976  1
  Ti  Ti78  1  0.353328  0.639288  0.573701  1
  Ti  Ti79  1  0.859377  0.636759  0.579947  1
  Ti  Ti80  1  0.404030  0.394485  0.495444  1
  Ti  Ti81  1  0.896059  0.375842  0.484524  1
  Ti  Ti82  1  0.371999  0.905449  0.483486  1
  Ti  Ti83  1  0.901935  0.893809  0.500435  1
  Ti  Ti84  1  0.103941  0.124158  0.484524  1
  Ti  Ti85  1  0.595970  0.105514  0.495444  1
  Ti  Ti86  1  0.098065  0.606190  0.500435  1
  Ti  Ti87  1  0.628001  0.594551  0.483486  1
  Ti  Ti88  1  0.125075  0.875290  0.737652  1
  Ti  Ti89  1  0.624814  0.874792  0.737554  1
  Ti  Ti90  1  0.375180  0.625188  0.737547  1
  Ti  Ti91  1  0.874918  0.624684  0.737658  1
  Ti  Ti92  1  0.124831  0.374951  0.737588  1
  Ti  Ti93  1  0.624987  0.374861  0.737605  1
  Ti  Ti94  1  0.375005  0.125117  0.737604  1
  Ti  Ti95  1  0.875165  0.125029  0.737585  1
  Nb  Nb96  1  0.500000  0.750000  0.352407  1
