# generated using pymatgen
data_Ti96Mo
_symmetry_space_group_name_H-M   'P 1'
_cell_length_a   9.51302000
_cell_length_b   9.35086000
_cell_length_c   18.54723000
_cell_angle_alpha   90.00000000
_cell_angle_beta   90.00000000
_cell_angle_gamma   90.00000000
_symmetry_Int_Tables_number   1
_chemical_formula_structural   Ti96Mo
_chemical_formula_sum   'Ti96 Mo1'
_cell_volume   1649.86732743
_cell_formula_units_Z   1
loop_
 _symmetry_equiv_pos_site_id
 _symmetry_equiv_pos_as_xyz
  1  'x, y, z'
loop_
 _atom_site_type_symbol
 _atom_site_label
 _atom_site_symmetry_multiplicity
 _atom_site_fract_x
 _atom_site_fract_y
 _atom_site_fract_z
 _atom_site_occupancy
  Ti  Ti0  1  0.152194  0.381841  0.408251  1
  Ti  Ti1  1  0.659937  0.344467  0.420433  1
  Ti  Ti2  1  0.137669  0.863174  0.407922  1
  Ti  Ti3  1  0.662756  0.862857  0.402167  1
  Ti  Ti4  1  0.147105  0.362625  0.238759  1
  Ti  Ti5  1  0.659957  0.367933  0.232826  1
  Ti  Ti6  1  0.168099  0.864767  0.238607  1
  Ti  Ti7  1  0.676415  0.904960  0.239417  1
  Ti  Ti8  1  0.166668  0.375069  0.077231  1
  Ti  Ti9  1  0.666746  0.375022  0.077292  1
  Ti  Ti10  1  0.166756  0.875081  0.077404  1
  Ti  Ti11  1  0.666495  0.874857  0.077507  1
  Ti  Ti12  1  0.397027  0.364149  0.325384  1
  Ti  Ti13  1  0.895432  0.372147  0.326616  1
  Ti  Ti14  1  0.377698  0.944628  0.339627  1
  Ti  Ti15  1  0.918064  0.882152  0.316278  1
  Ti  Ti16  1  0.416915  0.374894  0.154760  1
  Ti  Ti17  1  0.916877  0.374707  0.154701  1
  Ti  Ti18  1  0.416441  0.875156  0.155524  1
  Ti  Ti19  1  0.916992  0.874976  0.154635  1
  Ti  Ti20  1  0.416684  0.375056  -0.000180  1
  Ti  Ti21  1  0.916636  0.375001  -0.000279  1
  Ti  Ti22  1  0.416678  0.874960  0.000037  1
  Ti  Ti23  1  0.916643  0.874972  -0.000222  1
  Ti  Ti24  1  0.104568  0.127856  0.326614  1
  Ti  Ti25  1  0.602973  0.135854  0.325382  1
  Ti  Ti26  1  0.081936  0.617852  0.316278  1
  Ti  Ti27  1  0.622303  0.555375  0.339627  1
  Ti  Ti28  1  0.083120  0.125343  0.154697  1
  Ti  Ti29  1  0.583085  0.125153  0.154757  1
  Ti  Ti30  1  0.083006  0.625073  0.154635  1
  Ti  Ti31  1  0.583562  0.624849  0.155526  1
  Ti  Ti32  1  0.083365  0.125015  -0.000280  1
  Ti  Ti33  1  0.583317  0.124971  -0.000180  1
  Ti  Ti34  1  0.083356  0.625040  -0.000221  1
  Ti  Ti35  1  0.583324  0.625034  0.000038  1
  Ti  Ti36  1  0.340062  0.155534  0.420432  1
  Ti  Ti37  1  0.847805  0.118160  0.408251  1
  Ti  Ti38  1  0.337243  0.637145  0.402167  1
  Ti  Ti39  1  0.862330  0.636827  0.407922  1
  Ti  Ti40  1  0.340043  0.132075  0.232824  1
  Ti  Ti41  1  0.852894  0.137385  0.238758  1
  Ti  Ti42  1  0.323582  0.595049  0.239419  1
  Ti  Ti43  1  0.831900  0.635244  0.238607  1
  Ti  Ti44  1  0.333254  0.125014  0.077292  1
  Ti  Ti45  1  0.833331  0.124971  0.077231  1
  Ti  Ti46  1  0.333503  0.625168  0.077505  1
  Ti  Ti47  1  0.833244  0.624950  0.077405  1
  Ti  Ti48  1  0.375112  0.375134  0.823922  1
  Ti  Ti49  1  0.874864  0.374951  0.823865  1
  Ti  Ti50  1  0.375120  0.874975  0.823916  1
  Ti  Ti51  1  0.874782  0.874938  0.823985  1
  Ti  Ti52  1  0.125131  0.125009  0.823863  1
  Ti  Ti53  1  0.624900  0.124851  0.823924  1
  Ti  Ti54  1  0.125223  0.625029  0.823986  1
  Ti  Ti55  1  0.624880  0.624990  0.823917  1
  Ti  Ti56  1  0.125095  0.375073  0.910053  1
  Ti  Ti57  1  0.624970  0.375107  0.910125  1
  Ti  Ti58  1  0.125183  0.874957  0.910138  1
  Ti  Ti59  1  0.624886  0.874861  0.910257  1
  Ti  Ti60  1  0.375031  0.124868  0.910128  1
  Ti  Ti61  1  0.874908  0.124909  0.910053  1
  Ti  Ti62  1  0.375114  0.625094  0.910257  1
  Ti  Ti63  1  0.874818  0.625009  0.910141  1
  Ti  Ti64  1  0.396719  0.384458  0.655737  1
  Ti  Ti65  1  0.897559  0.375646  0.651826  1
  Ti  Ti66  1  0.398243  0.885165  0.649412  1
  Ti  Ti67  1  0.892758  0.883301  0.658485  1
  Ti  Ti68  1  0.102441  0.124348  0.651826  1
  Ti  Ti69  1  0.603281  0.115535  0.655738  1
  Ti  Ti70  1  0.107239  0.616691  0.658485  1
  Ti  Ti71  1  0.601759  0.614830  0.649412  1
  Ti  Ti72  1  0.154759  0.371695  0.570762  1
  Ti  Ti73  1  0.646856  0.355509  0.574386  1
  Ti  Ti74  1  0.143217  0.868522  0.579704  1
  Ti  Ti75  1  0.656845  0.867377  0.574279  1
  Ti  Ti76  1  0.353144  0.144488  0.574386  1
  Ti  Ti77  1  0.845241  0.128303  0.570761  1
  Ti  Ti78  1  0.343155  0.632621  0.574278  1
  Ti  Ti79  1  0.856782  0.631476  0.579705  1
  Ti  Ti80  1  0.409144  0.401521  0.488863  1
  Ti  Ti81  1  0.908877  0.376843  0.490120  1
  Ti  Ti82  1  0.374820  0.892467  0.493666  1
  Ti  Ti83  1  0.905328  0.877384  0.493683  1
  Ti  Ti84  1  0.091123  0.123156  0.490120  1
  Ti  Ti85  1  0.590856  0.098478  0.488863  1
  Ti  Ti86  1  0.094671  0.622616  0.493683  1
  Ti  Ti87  1  0.625180  0.607533  0.493666  1
  Ti  Ti88  1  0.125255  0.875348  0.737739  1
  Ti  Ti89  1  0.624553  0.874738  0.737548  1
  Ti  Ti90  1  0.375443  0.625237  0.737537  1
  Ti  Ti91  1  0.874739  0.624614  0.737748  1
  Ti  Ti92  1  0.124958  0.374815  0.737629  1
  Ti  Ti93  1  0.625021  0.374845  0.737566  1
  Ti  Ti94  1  0.374975  0.125135  0.737565  1
  Ti  Ti95  1  0.875040  0.125164  0.737626  1
  Mo  Mo96  1  0.500000  0.750001  0.318187  1
