# generated using pymatgen
data_Ti96Al
_symmetry_space_group_name_H-M   'P 1'
_cell_length_a   9.51302000
_cell_length_b   9.35086000
_cell_length_c   18.54723000
_cell_angle_alpha   90.00000000
_cell_angle_beta   90.00000000
_cell_angle_gamma   90.00000000
_symmetry_Int_Tables_number   1
_chemical_formula_structural   Ti96Al
_chemical_formula_sum   'Ti96 Al1'
_cell_volume   1649.86732743
_cell_formula_units_Z   1
loop_
 _symmetry_equiv_pos_site_id
 _symmetry_equiv_pos_as_xyz
  1  'x, y, z'
loop_
 _atom_site_type_symbol
 _atom_site_label
 _atom_site_symmetry_multiplicity
 _atom_site_fract_x
 _atom_site_fract_y
 _atom_site_fract_z
 _atom_site_occupancy
  Ti  Ti0  1  0.137565  0.363538  0.404697  1
  Ti  Ti1  1  0.648969  0.357830  0.401060  1
  Ti  Ti2  1  0.163061  0.861693  0.397002  1
  Ti  Ti3  1  0.680061  0.910540  0.392376  1
  Ti  Ti4  1  0.160782  0.377204  0.236961  1
  Ti  Ti5  1  0.663712  0.375395  0.232983  1
  Ti  Ti6  1  0.163892  0.875687  0.235289  1
  Ti  Ti7  1  0.660535  0.872110  0.237045  1
  Ti  Ti8  1  0.166670  0.375001  0.077673  1
  Ti  Ti9  1  0.666670  0.375004  0.077672  1
  Ti  Ti10  1  0.166676  0.874996  0.077683  1
  Ti  Ti11  1  0.666671  0.875006  0.077685  1
  Ti  Ti12  1  0.407569  0.370423  0.310366  1
  Ti  Ti13  1  0.903238  0.373616  0.317141  1
  Ti  Ti14  1  0.411739  0.886594  0.320916  1
  Ti  Ti15  1  0.916865  0.878968  0.315624  1
  Ti  Ti16  1  0.416672  0.374986  0.155348  1
  Ti  Ti17  1  0.916664  0.374990  0.155354  1
  Ti  Ti18  1  0.416645  0.875010  0.155371  1
  Ti  Ti19  1  0.916677  0.874992  0.155355  1
  Ti  Ti20  1  0.416667  0.374999  -0.000010  1
  Ti  Ti21  1  0.916665  0.375000  -0.000008  1
  Ti  Ti22  1  0.416664  0.874998  -0.000004  1
  Ti  Ti23  1  0.916670  0.874997  -0.000006  1
  Ti  Ti24  1  0.096762  0.126384  0.317140  1
  Ti  Ti25  1  0.592431  0.129577  0.310365  1
  Ti  Ti26  1  0.083135  0.621032  0.315623  1
  Ti  Ti27  1  0.588261  0.613406  0.320915  1
  Ti  Ti28  1  0.083336  0.125011  0.155354  1
  Ti  Ti29  1  0.583328  0.125015  0.155348  1
  Ti  Ti30  1  0.083323  0.625009  0.155355  1
  Ti  Ti31  1  0.583355  0.624990  0.155371  1
  Ti  Ti32  1  0.083335  0.125001  -0.000008  1
  Ti  Ti33  1  0.583333  0.125002  -0.000010  1
  Ti  Ti34  1  0.083330  0.625004  -0.000006  1
  Ti  Ti35  1  0.583336  0.625003  -0.000004  1
  Ti  Ti36  1  0.351030  0.142170  0.401060  1
  Ti  Ti37  1  0.862434  0.136462  0.404697  1
  Ti  Ti38  1  0.319938  0.589460  0.392376  1
  Ti  Ti39  1  0.836938  0.638307  0.397002  1
  Ti  Ti40  1  0.336287  0.124605  0.232983  1
  Ti  Ti41  1  0.839217  0.122796  0.236961  1
  Ti  Ti42  1  0.339464  0.627890  0.237045  1
  Ti  Ti43  1  0.836107  0.624314  0.235289  1
  Ti  Ti44  1  0.333329  0.124997  0.077672  1
  Ti  Ti45  1  0.833329  0.125000  0.077673  1
  Ti  Ti46  1  0.333328  0.624994  0.077685  1
  Ti  Ti47  1  0.833323  0.625005  0.077683  1
  Ti  Ti48  1  0.375000  0.375001  0.823769  1
  Ti  Ti49  1  0.874998  0.374997  0.823763  1
  Ti  Ti50  1  0.374999  0.875004  0.823771  1
  Ti  Ti51  1  0.874999  0.874996  0.823767  1
  Ti  Ti52  1  0.125002  0.125003  0.823763  1
  Ti  Ti53  1  0.625001  0.124998  0.823769  1
  Ti  Ti54  1  0.125001  0.625004  0.823767  1
  Ti  Ti55  1  0.625002  0.624995  0.823771  1
  Ti  Ti56  1  0.124999  0.375001  0.910091  1
  Ti  Ti57  1  0.625002  0.375000  0.910090  1
  Ti  Ti58  1  0.125001  0.875001  0.910093  1
  Ti  Ti59  1  0.625000  0.874999  0.910094  1
  Ti  Ti60  1  0.374998  0.125000  0.910091  1
  Ti  Ti61  1  0.875001  0.124999  0.910091  1
  Ti  Ti62  1  0.375000  0.625000  0.910095  1
  Ti  Ti63  1  0.875000  0.624999  0.910093  1
  Ti  Ti64  1  0.392804  0.401978  0.652834  1
  Ti  Ti65  1  0.899318  0.373801  0.648056  1
  Ti  Ti66  1  0.385587  0.886963  0.651527  1
  Ti  Ti67  1  0.879150  0.883266  0.667008  1
  Ti  Ti68  1  0.100682  0.126199  0.648056  1
  Ti  Ti69  1  0.607196  0.098022  0.652834  1
  Ti  Ti70  1  0.120850  0.616733  0.667008  1
  Ti  Ti71  1  0.614413  0.613037  0.651527  1
  Ti  Ti72  1  0.152371  0.389322  0.566533  1
  Ti  Ti73  1  0.647473  0.338735  0.581505  1
  Ti  Ti74  1  0.121595  0.857868  0.582772  1
  Ti  Ti75  1  0.649257  0.854242  0.565051  1
  Ti  Ti76  1  0.352526  0.161265  0.581505  1
  Ti  Ti77  1  0.847629  0.110678  0.566533  1
  Ti  Ti78  1  0.350743  0.645758  0.565051  1
  Ti  Ti79  1  0.878405  0.642132  0.582772  1
  Ti  Ti80  1  0.408369  0.388112  0.489763  1
  Ti  Ti81  1  0.894410  0.372838  0.491353  1
  Ti  Ti82  1  0.344689  0.934249  0.501829  1
  Ti  Ti83  1  0.912203  0.876697  0.479618  1
  Ti  Ti84  1  0.105590  0.127162  0.491353  1
  Ti  Ti85  1  0.591631  0.111888  0.489763  1
  Ti  Ti86  1  0.087797  0.623303  0.479618  1
  Ti  Ti87  1  0.655311  0.565751  0.501829  1
  Ti  Ti88  1  0.124983  0.875014  0.737441  1
  Ti  Ti89  1  0.625024  0.874954  0.737458  1
  Ti  Ti90  1  0.374975  0.625044  0.737458  1
  Ti  Ti91  1  0.875016  0.624985  0.737441  1
  Ti  Ti92  1  0.124967  0.375002  0.737438  1
  Ti  Ti93  1  0.625028  0.374958  0.737444  1
  Ti  Ti94  1  0.374971  0.125040  0.737444  1
  Ti  Ti95  1  0.875033  0.124997  0.737438  1
  Al  Al96  1  0.500000  0.750000  0.448168  1
