# generated using pymatgen
data_Ti96Nb
_symmetry_space_group_name_H-M   'P 1'
_cell_length_a   9.51302000
_cell_length_b   9.35086000
_cell_length_c   18.54723000
_cell_angle_alpha   90.00000000
_cell_angle_beta   90.00000000
_cell_angle_gamma   90.00000000
_symmetry_Int_Tables_number   1
_chemical_formula_structural   Ti96Nb
_chemical_formula_sum   'Ti96 Nb1'
_cell_volume   1649.86732743
_cell_formula_units_Z   1
loop_
 _symmetry_equiv_pos_site_id
 _symmetry_equiv_pos_as_xyz
  1  'x, y, z'
loop_
 _atom_site_type_symbol
 _atom_site_label
 _atom_site_symmetry_multiplicity
 _atom_site_fract_x
 _atom_site_fract_y
 _atom_site_fract_z
 _atom_site_occupancy
  Ti  Ti0  1  0.147853  0.373716  0.403720  1
  Ti  Ti1  1  0.655157  0.348132  0.395591  1
  Ti  Ti2  1  0.137242  0.861771  0.395989  1
  Ti  Ti3  1  0.665333  0.862922  0.401792  1
  Ti  Ti4  1  0.162504  0.370402  0.235604  1
  Ti  Ti5  1  0.658252  0.374590  0.234644  1
  Ti  Ti6  1  0.162993  0.873799  0.235226  1
  Ti  Ti7  1  0.658268  0.872189  0.234998  1
  Ti  Ti8  1  0.166665  0.375032  0.077681  1
  Ti  Ti9  1  0.666674  0.375009  0.077666  1
  Ti  Ti10  1  0.166670  0.874983  0.077701  1
  Ti  Ti11  1  0.666671  0.874983  0.077683  1
  Ti  Ti12  1  0.405724  0.385152  0.316625  1
  Ti  Ti13  1  0.906538  0.376041  0.318165  1
  Ti  Ti14  1  0.404124  0.883116  0.322726  1
  Ti  Ti15  1  0.907392  0.881077  0.312514  1
  Ti  Ti16  1  0.416679  0.374996  0.155291  1
  Ti  Ti17  1  0.916679  0.374987  0.155280  1
  Ti  Ti18  1  0.416664  0.874997  0.155320  1
  Ti  Ti19  1  0.916678  0.874966  0.155299  1
  Ti  Ti20  1  0.416662  0.375028  -0.000007  1
  Ti  Ti21  1  0.916644  0.375019  -0.000006  1
  Ti  Ti22  1  0.416662  0.874982  -0.000022  1
  Ti  Ti23  1  0.916654  0.874984  -0.000012  1
  Ti  Ti24  1  0.093462  0.123959  0.318164  1
  Ti  Ti25  1  0.594276  0.114848  0.316624  1
  Ti  Ti26  1  0.092608  0.618923  0.312513  1
  Ti  Ti27  1  0.595876  0.616884  0.322725  1
  Ti  Ti28  1  0.083321  0.125019  0.155281  1
  Ti  Ti29  1  0.583321  0.125010  0.155291  1
  Ti  Ti30  1  0.083322  0.625041  0.155299  1
  Ti  Ti31  1  0.583336  0.625010  0.155320  1
  Ti  Ti32  1  0.083357  0.124986  -0.000005  1
  Ti  Ti33  1  0.583339  0.124980  -0.000006  1
  Ti  Ti34  1  0.083346  0.625024  -0.000012  1
  Ti  Ti35  1  0.583338  0.625027  -0.000022  1
  Ti  Ti36  1  0.344842  0.151868  0.395591  1
  Ti  Ti37  1  0.852146  0.126284  0.403720  1
  Ti  Ti38  1  0.334666  0.637078  0.401792  1
  Ti  Ti39  1  0.862757  0.638229  0.395989  1
  Ti  Ti40  1  0.341747  0.125411  0.234644  1
  Ti  Ti41  1  0.837495  0.129600  0.235604  1
  Ti  Ti42  1  0.341731  0.627812  0.234998  1
  Ti  Ti43  1  0.837006  0.626202  0.235226  1
  Ti  Ti44  1  0.333325  0.124997  0.077667  1
  Ti  Ti45  1  0.833334  0.124973  0.077681  1
  Ti  Ti46  1  0.333328  0.625025  0.077683  1
  Ti  Ti47  1  0.833329  0.625023  0.077701  1
  Ti  Ti48  1  0.374993  0.375028  0.823918  1
  Ti  Ti49  1  0.874976  0.374959  0.823888  1
  Ti  Ti50  1  0.375047  0.874938  0.823821  1
  Ti  Ti51  1  0.875018  0.874975  0.823846  1
  Ti  Ti52  1  0.125028  0.125035  0.823888  1
  Ti  Ti53  1  0.625013  0.124974  0.823919  1
  Ti  Ti54  1  0.124985  0.625025  0.823847  1
  Ti  Ti55  1  0.624957  0.625054  0.823822  1
  Ti  Ti56  1  0.124986  0.375027  0.910151  1
  Ti  Ti57  1  0.625010  0.375012  0.910159  1
  Ti  Ti58  1  0.125024  0.874966  0.910123  1
  Ti  Ti59  1  0.624993  0.874963  0.910129  1
  Ti  Ti60  1  0.374994  0.124987  0.910160  1
  Ti  Ti61  1  0.875019  0.124973  0.910151  1
  Ti  Ti62  1  0.375010  0.625037  0.910128  1
  Ti  Ti63  1  0.874980  0.625035  0.910122  1
  Ti  Ti64  1  0.386002  0.375470  0.666018  1
  Ti  Ti65  1  0.884255  0.383619  0.647249  1
  Ti  Ti66  1  0.382133  0.891535  0.654978  1
  Ti  Ti67  1  0.896242  0.881986  0.659754  1
  Ti  Ti68  1  0.115744  0.116379  0.647249  1
  Ti  Ti69  1  0.613997  0.124526  0.666018  1
  Ti  Ti70  1  0.103756  0.618010  0.659754  1
  Ti  Ti71  1  0.617866  0.608462  0.654979  1
  Ti  Ti72  1  0.141076  0.365524  0.570375  1
  Ti  Ti73  1  0.632663  0.349490  0.574414  1
  Ti  Ti74  1  0.145323  0.853948  0.572923  1
  Ti  Ti75  1  0.671210  0.904177  0.576388  1
  Ti  Ti76  1  0.367337  0.150509  0.574414  1
  Ti  Ti77  1  0.858924  0.134475  0.570375  1
  Ti  Ti78  1  0.328790  0.595822  0.576388  1
  Ti  Ti79  1  0.854677  0.646051  0.572923  1
  Ti  Ti80  1  0.403284  0.387893  0.481353  1
  Ti  Ti81  1  0.891447  0.379308  0.488851  1
  Ti  Ti82  1  0.351342  -0.070853  0.479524  1
  Ti  Ti83  1  0.911476  0.883548  0.486788  1
  Ti  Ti84  1  0.108553  0.120692  0.488851  1
  Ti  Ti85  1  0.596716  0.112107  0.481353  1
  Ti  Ti86  1  0.088524  0.616452  0.486788  1
  Ti  Ti87  1  0.648658  0.570853  0.479524  1
  Ti  Ti88  1  0.125472  0.875011  0.737645  1
  Ti  Ti89  1  0.625104  0.874832  0.737660  1
  Ti  Ti90  1  0.374888  0.625153  0.737658  1
  Ti  Ti91  1  0.874522  0.624976  0.737649  1
  Ti  Ti92  1  0.124846  0.374863  0.737657  1
  Ti  Ti93  1  0.625088  0.374764  0.737721  1
  Ti  Ti94  1  0.374904  0.125217  0.737719  1
  Ti  Ti95  1  0.875148  0.125122  0.737654  1
  Nb  Nb96  1  0.500000  0.750000  0.524802  1
