# generated using pymatgen
data_Ti96Nb
_symmetry_space_group_name_H-M   'P 1'
_cell_length_a   9.51302000
_cell_length_b   9.35086000
_cell_length_c   18.54723000
_cell_angle_alpha   90.00000000
_cell_angle_beta   90.00000000
_cell_angle_gamma   90.00000000
_symmetry_Int_Tables_number   1
_chemical_formula_structural   Ti96Nb
_chemical_formula_sum   'Ti96 Nb1'
_cell_volume   1649.86732743
_cell_formula_units_Z   1
loop_
 _symmetry_equiv_pos_site_id
 _symmetry_equiv_pos_as_xyz
  1  'x, y, z'
loop_
 _atom_site_type_symbol
 _atom_site_label
 _atom_site_symmetry_multiplicity
 _atom_site_fract_x
 _atom_site_fract_y
 _atom_site_fract_z
 _atom_site_occupancy
  Ti  Ti0  1  0.134953  0.361686  0.404535  1
  Ti  Ti1  1  0.653568  0.354884  0.401071  1
  Ti  Ti2  1  0.165529  0.859420  0.399325  1
  Ti  Ti3  1  0.680860  0.913616  0.404601  1
  Ti  Ti4  1  0.159558  0.377570  0.237075  1
  Ti  Ti5  1  0.664624  0.368331  0.229596  1
  Ti  Ti6  1  0.159433  0.873451  0.234115  1
  Ti  Ti7  1  0.657835  0.863466  0.242814  1
  Ti  Ti8  1  0.166661  0.374991  0.077599  1
  Ti  Ti9  1  0.666672  0.375015  0.077662  1
  Ti  Ti10  1  0.166684  0.875007  0.077652  1
  Ti  Ti11  1  0.666678  0.875027  0.077637  1
  Ti  Ti12  1  0.405099  0.371119  0.312964  1
  Ti  Ti13  1  0.902139  0.377797  0.317210  1
  Ti  Ti14  1  0.399812  0.901945  0.313225  1
  Ti  Ti15  1  0.914550  0.878607  0.319168  1
  Ti  Ti16  1  0.416698  0.374898  0.155219  1
  Ti  Ti17  1  0.916586  0.375011  0.155185  1
  Ti  Ti18  1  0.416633  0.875051  0.155274  1
  Ti  Ti19  1  0.916796  0.875019  0.155162  1
  Ti  Ti20  1  0.416694  0.375040  0.000061  1
  Ti  Ti21  1  0.916601  0.375038  0.000010  1
  Ti  Ti22  1  0.416684  0.874966  0.000120  1
  Ti  Ti23  1  0.916640  0.874984  0.000033  1
  Ti  Ti24  1  0.097861  0.122204  0.317209  1
  Ti  Ti25  1  0.594901  0.128883  0.312963  1
  Ti  Ti26  1  0.085450  0.621394  0.319167  1
  Ti  Ti27  1  0.600188  0.598057  0.313224  1
  Ti  Ti28  1  0.083414  0.125010  0.155186  1
  Ti  Ti29  1  0.583303  0.125124  0.155218  1
  Ti  Ti30  1  0.083203  0.625003  0.155161  1
  Ti  Ti31  1  0.583368  0.624966  0.155274  1
  Ti  Ti32  1  0.083401  0.124968  0.000011  1
  Ti  Ti33  1  0.583306  0.124964  0.000062  1
  Ti  Ti34  1  0.083360  0.625024  0.000032  1
  Ti  Ti35  1  0.583318  0.625032  0.000119  1
  Ti  Ti36  1  0.346431  0.145117  0.401071  1
  Ti  Ti37  1  0.865046  0.138315  0.404535  1
  Ti  Ti38  1  0.319139  0.586384  0.404601  1
  Ti  Ti39  1  0.834470  0.640580  0.399325  1
  Ti  Ti40  1  0.335376  0.131674  0.229595  1
  Ti  Ti41  1  0.840441  0.122435  0.237075  1
  Ti  Ti42  1  0.342164  0.636538  0.242814  1
  Ti  Ti43  1  0.840566  0.626554  0.234115  1
  Ti  Ti44  1  0.333327  0.124999  0.077662  1
  Ti  Ti45  1  0.833339  0.125026  0.077599  1
  Ti  Ti46  1  0.333322  0.624988  0.077636  1
  Ti  Ti47  1  0.833315  0.625007  0.077651  1
  Ti  Ti48  1  0.374949  0.375072  0.823981  1
  Ti  Ti49  1  0.874944  0.375030  0.823918  1
  Ti  Ti50  1  0.375015  0.874917  0.823963  1
  Ti  Ti51  1  0.875099  0.875029  0.823871  1
  Ti  Ti52  1  0.125061  0.124962  0.823920  1
  Ti  Ti53  1  0.625053  0.124925  0.823982  1
  Ti  Ti54  1  0.124910  0.624970  0.823872  1
  Ti  Ti55  1  0.624991  0.625059  0.823961  1
  Ti  Ti56  1  0.124950  0.375033  0.910166  1
  Ti  Ti57  1  0.625012  0.375026  0.910197  1
  Ti  Ti58  1  0.125022  0.874963  0.910170  1
  Ti  Ti59  1  0.625013  0.874986  0.910199  1
  Ti  Ti60  1  0.374994  0.124967  0.910200  1
  Ti  Ti61  1  0.875055  0.124962  0.910166  1
  Ti  Ti62  1  0.374992  0.625006  0.910198  1
  Ti  Ti63  1  0.874983  0.625033  0.910168  1
  Ti  Ti64  1  0.386880  0.389313  0.659569  1
  Ti  Ti65  1  0.895187  0.382652  0.650006  1
  Ti  Ti66  1  0.385659  0.882023  0.657792  1
  Ti  Ti67  1  0.891808  0.883436  0.658883  1
  Ti  Ti68  1  0.104813  0.117344  0.650006  1
  Ti  Ti69  1  0.613117  0.110679  0.659569  1
  Ti  Ti70  1  0.108190  0.616558  0.658884  1
  Ti  Ti71  1  0.614339  0.617971  0.657792  1
  Ti  Ti72  1  0.144345  0.371942  0.568115  1
  Ti  Ti73  1  0.645809  0.355738  0.585197  1
  Ti  Ti74  1  0.142792  0.855964  0.575334  1
  Ti  Ti75  1  0.657455  0.877145  0.566927  1
  Ti  Ti76  1  0.354190  0.144260  0.585198  1
  Ti  Ti77  1  0.855655  0.128057  0.568115  1
  Ti  Ti78  1  0.342545  0.622854  0.566926  1
  Ti  Ti79  1  0.857208  0.644035  0.575334  1
  Ti  Ti80  1  0.403187  0.366405  0.492937  1
  Ti  Ti81  1  0.888373  0.381806  0.491480  1
  Ti  Ti82  1  0.371942  0.932057  0.496252  1
  Ti  Ti83  1  0.917812  0.880450  0.483254  1
  Ti  Ti84  1  0.111627  0.118194  0.491481  1
  Ti  Ti85  1  0.596813  0.133594  0.492937  1
  Ti  Ti86  1  0.082187  0.619549  0.483254  1
  Ti  Ti87  1  0.628058  0.567943  0.496252  1
  Ti  Ti88  1  0.125316  0.874838  0.737677  1
  Ti  Ti89  1  0.625254  0.874910  0.737760  1
  Ti  Ti90  1  0.374733  0.625064  0.737760  1
  Ti  Ti91  1  0.874678  0.625145  0.737678  1
  Ti  Ti92  1  0.124515  0.375065  0.737695  1
  Ti  Ti93  1  0.625093  0.375182  0.737793  1
  Ti  Ti94  1  0.374895  0.124791  0.737798  1
  Ti  Ti95  1  0.875479  0.124915  0.737691  1
  Nb  Nb96  1  0.500000  0.750000  0.449652  1
