# generated using pymatgen
data_Ti
_symmetry_space_group_name_H-M   'P 1'
_cell_length_a   9.51302000
_cell_length_b   9.35086000
_cell_length_c   18.54723000
_cell_angle_alpha   90.00000000
_cell_angle_beta   90.00000000
_cell_angle_gamma   90.00000000
_symmetry_Int_Tables_number   1
_chemical_formula_structural   Ti
_chemical_formula_sum   Ti97
_cell_volume   1649.86732743
_cell_formula_units_Z   97
loop_
 _symmetry_equiv_pos_site_id
 _symmetry_equiv_pos_as_xyz
  1  'x, y, z'
loop_
 _atom_site_type_symbol
 _atom_site_label
 _atom_site_symmetry_multiplicity
 _atom_site_fract_x
 _atom_site_fract_y
 _atom_site_fract_z
 _atom_site_occupancy
  Ti  Ti0  1  0.144492  0.367629  0.402674  1
  Ti  Ti1  1  0.657954  0.358928  0.396132  1
  Ti  Ti2  1  0.161474  0.864570  0.400007  1
  Ti  Ti3  1  0.669503  0.892873  0.406937  1
  Ti  Ti4  1  0.160072  0.376033  0.237019  1
  Ti  Ti5  1  0.662509  0.369492  0.231503  1
  Ti  Ti6  1  0.159948  0.874160  0.234542  1
  Ti  Ti7  1  0.659107  0.866680  0.240449  1
  Ti  Ti8  1  0.166639  0.375032  0.077585  1
  Ti  Ti9  1  0.666687  0.375013  0.077612  1
  Ti  Ti10  1  0.166691  0.874948  0.077658  1
  Ti  Ti11  1  0.666675  0.874976  0.077678  1
  Ti  Ti12  1  0.406961  0.376159  0.315098  1
  Ti  Ti13  1  0.906808  0.377619  0.317611  1
  Ti  Ti14  1  0.400211  0.891422  0.314012  1
  Ti  Ti15  1  0.910388  0.876763  0.319257  1
  Ti  Ti16  1  0.416687  0.374996  0.155179  1
  Ti  Ti17  1  0.916617  0.374982  0.155148  1
  Ti  Ti18  1  0.416618  0.874910  0.155340  1
  Ti  Ti19  1  0.916754  0.874934  0.155196  1
  Ti  Ti20  1  0.416704  0.375095  0.000102  1
  Ti  Ti21  1  0.916587  0.375066  0.000038  1
  Ti  Ti22  1  0.416697  0.874909  0.000176  1
  Ti  Ti23  1  0.916612  0.874944  0.000072  1
  Ti  Ti24  1  0.093192  0.122383  0.317610  1
  Ti  Ti25  1  0.593039  0.123842  0.315097  1
  Ti  Ti26  1  0.089612  0.623239  0.319256  1
  Ti  Ti27  1  0.599789  0.608580  0.314011  1
  Ti  Ti28  1  0.083384  0.125040  0.155149  1
  Ti  Ti29  1  0.583313  0.125027  0.155179  1
  Ti  Ti30  1  0.083246  0.625087  0.155195  1
  Ti  Ti31  1  0.583383  0.625107  0.155339  1
  Ti  Ti32  1  0.083415  0.124937  0.000040  1
  Ti  Ti33  1  0.583297  0.124905  0.000106  1
  Ti  Ti34  1  0.083389  0.625063  0.000071  1
  Ti  Ti35  1  0.583304  0.625087  0.000175  1
  Ti  Ti36  1  0.342045  0.141072  0.396132  1
  Ti  Ti37  1  0.855507  0.132371  0.402674  1
  Ti  Ti38  1  0.330496  0.607127  0.406937  1
  Ti  Ti39  1  0.838525  0.635430  0.400007  1
  Ti  Ti40  1  0.337490  0.130513  0.231503  1
  Ti  Ti41  1  0.839927  0.123972  0.237019  1
  Ti  Ti42  1  0.340892  0.633324  0.240449  1
  Ti  Ti43  1  0.840051  0.625844  0.234541  1
  Ti  Ti44  1  0.333313  0.125000  0.077613  1
  Ti  Ti45  1  0.833361  0.124984  0.077586  1
  Ti  Ti46  1  0.333325  0.625039  0.077678  1
  Ti  Ti47  1  0.833309  0.625068  0.077657  1
  Ti  Ti48  1  0.374996  0.375064  0.824030  1
  Ti  Ti49  1  0.874970  0.374934  0.823994  1
  Ti  Ti50  1  0.375061  0.874935  0.823854  1
  Ti  Ti51  1  0.874979  0.874975  0.823914  1
  Ti  Ti52  1  0.125034  0.125048  0.823996  1
  Ti  Ti53  1  0.625010  0.124936  0.824033  1
  Ti  Ti54  1  0.125025  0.625026  0.823915  1
  Ti  Ti55  1  0.624947  0.625050  0.823854  1
  Ti  Ti56  1  0.124987  0.375049  0.910216  1
  Ti  Ti57  1  0.625003  0.375017  0.910231  1
  Ti  Ti58  1  0.125060  0.874950  0.910177  1
  Ti  Ti59  1  0.624949  0.874933  0.910180  1
  Ti  Ti60  1  0.375003  0.124976  0.910233  1
  Ti  Ti61  1  0.875020  0.124947  0.910217  1
  Ti  Ti62  1  0.375055  0.625061  0.910178  1
  Ti  Ti63  1  0.874944  0.625047  0.910176  1
  Ti  Ti64  1  0.386991  0.382276  0.662146  1
  Ti  Ti65  1  0.892633  0.385687  0.649604  1
  Ti  Ti66  1  0.380864  0.884212  0.661377  1
  Ti  Ti67  1  0.897504  0.881074  0.655190  1
  Ti  Ti68  1  0.107365  0.114309  0.649603  1
  Ti  Ti69  1  0.613006  0.117717  0.662146  1
  Ti  Ti70  1  0.102493  0.618920  0.655191  1
  Ti  Ti71  1  0.619135  0.615782  0.661378  1
  Ti  Ti72  1  0.143976  0.367522  0.570431  1
  Ti  Ti73  1  0.643712  0.360057  0.582645  1
  Ti  Ti74  1  0.151976  0.856653  0.570453  1
  Ti  Ti75  1  0.664471  0.895103  0.568134  1
  Ti  Ti76  1  0.356287  0.139941  0.582645  1
  Ti  Ti77  1  0.856024  0.132477  0.570431  1
  Ti  Ti78  1  0.335529  0.604896  0.568134  1
  Ti  Ti79  1  0.848024  0.643345  0.570453  1
  Ti  Ti80  1  0.400590  0.363514  0.487583  1
  Ti  Ti81  1  0.890015  0.379524  0.489770  1
  Ti  Ti82  1  0.373106  0.937316  0.487174  1
  Ti  Ti83  1  0.916247  0.882514  0.484191  1
  Ti  Ti84  1  0.109985  0.120475  0.489770  1
  Ti  Ti85  1  0.599410  0.136486  0.487583  1
  Ti  Ti86  1  0.083753  0.617486  0.484191  1
  Ti  Ti87  1  0.626894  0.562684  0.487175  1
  Ti  Ti88  1  0.125480  0.875005  0.737716  1
  Ti  Ti89  1  0.625024  0.874773  0.737637  1
  Ti  Ti90  1  0.374969  0.625211  0.737633  1
  Ti  Ti91  1  0.874512  0.624976  0.737722  1
  Ti  Ti92  1  0.124721  0.375027  0.737828  1
  Ti  Ti93  1  0.625237  0.374824  0.737892  1
  Ti  Ti94  1  0.374749  0.125145  0.737892  1
  Ti  Ti95  1  0.875269  0.124947  0.737826  1
  Ti  Ti96  1  0.500000  0.750000  0.490029  1
