# generated using pymatgen
data_Ti96Mo
_symmetry_space_group_name_H-M   'P 1'
_cell_length_a   9.51302000
_cell_length_b   9.35086000
_cell_length_c   18.54723000
_cell_angle_alpha   90.00000000
_cell_angle_beta   90.00000000
_cell_angle_gamma   90.00000000
_symmetry_Int_Tables_number   1
_chemical_formula_structural   Ti96Mo
_chemical_formula_sum   'Ti96 Mo1'
_cell_volume   1649.86732743
_cell_formula_units_Z   1
loop_
 _symmetry_equiv_pos_site_id
 _symmetry_equiv_pos_as_xyz
  1  'x, y, z'
loop_
 _atom_site_type_symbol
 _atom_site_label
 _atom_site_symmetry_multiplicity
 _atom_site_fract_x
 _atom_site_fract_y
 _atom_site_fract_z
 _atom_site_occupancy
  Ti  Ti0  1  0.150437  0.378104  0.406712  1
  Ti  Ti1  1  0.645505  0.334455  0.406578  1
  Ti  Ti2  1  0.124586  0.855915  0.391510  1
  Ti  Ti3  1  0.668444  0.861522  0.393914  1
  Ti  Ti4  1  0.162601  0.370742  0.234403  1
  Ti  Ti5  1  0.659126  0.375645  0.235020  1
  Ti  Ti6  1  0.164977  0.874337  0.235277  1
  Ti  Ti7  1  0.652585  0.870118  0.237221  1
  Ti  Ti8  1  0.166666  0.375000  0.077689  1
  Ti  Ti9  1  0.666666  0.375000  0.077689  1
  Ti  Ti10  1  0.166666  0.875000  0.077689  1
  Ti  Ti11  1  0.666666  0.875000  0.077689  1
  Ti  Ti12  1  0.404464  0.382615  0.316202  1
  Ti  Ti13  1  0.897666  0.371229  0.320929  1
  Ti  Ti14  1  0.401842  0.898213  0.332049  1
  Ti  Ti15  1  0.911611  0.886393  0.307083  1
  Ti  Ti16  1  0.416667  0.375000  0.155379  1
  Ti  Ti17  1  0.916667  0.375000  0.155379  1
  Ti  Ti18  1  0.416667  0.875000  0.155379  1
  Ti  Ti19  1  0.916667  0.875000  0.155379  1
  Ti  Ti20  1  0.416667  0.375000  0.000000  1
  Ti  Ti21  1  0.916667  0.375000  0.000000  1
  Ti  Ti22  1  0.416667  0.875000  0.000000  1
  Ti  Ti23  1  0.916667  0.875000  0.000000  1
  Ti  Ti24  1  0.102334  0.128771  0.320928  1
  Ti  Ti25  1  0.595536  0.117385  0.316201  1
  Ti  Ti26  1  0.088389  0.613607  0.307082  1
  Ti  Ti27  1  0.598158  0.601787  0.332048  1
  Ti  Ti28  1  0.083333  0.125000  0.155379  1
  Ti  Ti29  1  0.583333  0.125000  0.155379  1
  Ti  Ti30  1  0.083333  0.625000  0.155379  1
  Ti  Ti31  1  0.583333  0.625000  0.155379  1
  Ti  Ti32  1  0.083333  0.125000  0.000000  1
  Ti  Ti33  1  0.583333  0.125000  0.000000  1
  Ti  Ti34  1  0.083333  0.625000  0.000000  1
  Ti  Ti35  1  0.583333  0.625000  0.000000  1
  Ti  Ti36  1  0.354494  0.165545  0.406578  1
  Ti  Ti37  1  0.849562  0.121896  0.406712  1
  Ti  Ti38  1  0.331555  0.638478  0.393914  1
  Ti  Ti39  1  0.875413  0.644085  0.391510  1
  Ti  Ti40  1  0.340873  0.124355  0.235020  1
  Ti  Ti41  1  0.837398  0.129258  0.234403  1
  Ti  Ti42  1  0.347414  0.629882  0.237221  1
  Ti  Ti43  1  0.835022  0.625663  0.235277  1
  Ti  Ti44  1  0.333333  0.125000  0.077689  1
  Ti  Ti45  1  0.833333  0.125000  0.077689  1
  Ti  Ti46  1  0.333333  0.625000  0.077689  1
  Ti  Ti47  1  0.833333  0.625000  0.077689  1
  Ti  Ti48  1  0.375000  0.375000  0.823738  1
  Ti  Ti49  1  0.875000  0.375000  0.823738  1
  Ti  Ti50  1  0.375000  0.875000  0.823738  1
  Ti  Ti51  1  0.875000  0.875000  0.823738  1
  Ti  Ti52  1  0.125000  0.125000  0.823738  1
  Ti  Ti53  1  0.625000  0.125000  0.823738  1
  Ti  Ti54  1  0.125000  0.625000  0.823738  1
  Ti  Ti55  1  0.625000  0.625000  0.823738  1
  Ti  Ti56  1  0.125000  0.375000  0.910084  1
  Ti  Ti57  1  0.625000  0.375000  0.910084  1
  Ti  Ti58  1  0.125000  0.875000  0.910084  1
  Ti  Ti59  1  0.625000  0.875000  0.910084  1
  Ti  Ti60  1  0.375000  0.125000  0.910084  1
  Ti  Ti61  1  0.875000  0.125000  0.910084  1
  Ti  Ti62  1  0.375000  0.625000  0.910084  1
  Ti  Ti63  1  0.875000  0.625000  0.910084  1
  Ti  Ti64  1  0.393962  0.385250  0.658511  1
  Ti  Ti65  1  0.891558  0.368838  0.645920  1
  Ti  Ti66  1  0.393360  0.896768  0.641991  1
  Ti  Ti67  1  0.880323  0.885611  0.670765  1
  Ti  Ti68  1  0.108442  0.131162  0.645920  1
  Ti  Ti69  1  0.606038  0.114750  0.658511  1
  Ti  Ti70  1  0.119677  0.614389  0.670765  1
  Ti  Ti71  1  0.606640  0.603232  0.641991  1
  Ti  Ti72  1  0.152883  0.380359  0.566791  1
  Ti  Ti73  1  0.638424  0.333291  0.568156  1
  Ti  Ti74  1  0.119649  0.859169  0.588703  1
  Ti  Ti75  1  0.657787  0.861612  0.578393  1
  Ti  Ti76  1  0.361576  0.166709  0.568156  1
  Ti  Ti77  1  0.847117  0.119641  0.566791  1
  Ti  Ti78  1  0.342213  0.638388  0.578393  1
  Ti  Ti79  1  0.880351  0.640831  0.588703  1
  Ti  Ti80  1  0.416984  0.423050  0.485118  1
  Ti  Ti81  1  0.902857  0.373397  0.487333  1
  Ti  Ti82  1  0.313648  0.923375  0.488991  1
  Ti  Ti83  1  0.906424  0.875876  0.489301  1
  Ti  Ti84  1  0.097143  0.126603  0.487333  1
  Ti  Ti85  1  0.583016  0.076950  0.485118  1
  Ti  Ti86  1  0.093576  0.624124  0.489301  1
  Ti  Ti87  1  0.686352  0.576625  0.488991  1
  Ti  Ti88  1  0.125000  0.875000  0.737395  1
  Ti  Ti89  1  0.625000  0.875000  0.737395  1
  Ti  Ti90  1  0.375000  0.625000  0.737395  1
  Ti  Ti91  1  0.875000  0.625000  0.737395  1
  Ti  Ti92  1  0.125000  0.375000  0.737395  1
  Ti  Ti93  1  0.625000  0.375000  0.737395  1
  Ti  Ti94  1  0.375000  0.125000  0.737395  1
  Ti  Ti95  1  0.875000  0.125000  0.737395  1
  Mo  Mo96  1  0.500000  0.750000  0.484235  1
