# generated using pymatgen
data_Ti96Al
_symmetry_space_group_name_H-M   'P 1'
_cell_length_a   9.51302000
_cell_length_b   9.35086000
_cell_length_c   18.54723000
_cell_angle_alpha   90.00000000
_cell_angle_beta   90.00000000
_cell_angle_gamma   90.00000000
_symmetry_Int_Tables_number   1
_chemical_formula_structural   Ti96Al
_chemical_formula_sum   'Ti96 Al1'
_cell_volume   1649.86732743
_cell_formula_units_Z   1
loop_
 _symmetry_equiv_pos_site_id
 _symmetry_equiv_pos_as_xyz
  1  'x, y, z'
loop_
 _atom_site_type_symbol
 _atom_site_label
 _atom_site_symmetry_multiplicity
 _atom_site_fract_x
 _atom_site_fract_y
 _atom_site_fract_z
 _atom_site_occupancy
  Ti  Ti0  1  0.140194  0.383381  0.402594  1
  Ti  Ti1  1  0.652563  0.363697  0.397023  1
  Ti  Ti2  1  0.168374  0.882778  0.401690  1
  Ti  Ti3  1  0.630087  0.930524  0.399958  1
  Ti  Ti4  1  0.162974  0.375551  0.234477  1
  Ti  Ti5  1  0.658852  0.379573  0.233721  1
  Ti  Ti6  1  0.160450  0.876018  0.236180  1
  Ti  Ti7  1  0.660811  0.875415  0.235896  1
  Ti  Ti8  1  0.166630  0.374957  0.077574  1
  Ti  Ti9  1  0.666696  0.374987  0.077569  1
  Ti  Ti10  1  0.166710  0.875014  0.077584  1
  Ti  Ti11  1  0.666674  0.875000  0.077641  1
  Ti  Ti12  1  0.398094  0.372233  0.321537  1
  Ti  Ti13  1  0.911273  0.363970  0.308842  1
  Ti  Ti14  1  0.411503  0.870258  0.315367  1
  Ti  Ti15  1  0.911504  0.878126  0.325915  1
  Ti  Ti16  1  0.416614  0.375018  0.155185  1
  Ti  Ti17  1  0.916715  0.374770  0.155206  1
  Ti  Ti18  1  0.416769  0.875052  0.155255  1
  Ti  Ti19  1  0.916752  0.874905  0.155225  1
  Ti  Ti20  1  0.416678  0.375003  -0.000033  1
  Ti  Ti21  1  0.916648  0.374983  -0.000024  1
  Ti  Ti22  1  0.416705  0.875009  -0.000006  1
  Ti  Ti23  1  0.916646  0.874990  -0.000007  1
  Ti  Ti24  1  0.101906  0.127768  0.321536  1
  Ti  Ti25  1  0.588727  0.136031  0.308841  1
  Ti  Ti26  1  0.088497  0.629743  0.315366  1
  Ti  Ti27  1  0.588496  0.621875  0.325914  1
  Ti  Ti28  1  0.083389  0.124997  0.155184  1
  Ti  Ti29  1  0.583282  0.125244  0.155203  1
  Ti  Ti30  1  0.083232  0.624960  0.155257  1
  Ti  Ti31  1  0.583245  0.625109  0.155224  1
  Ti  Ti32  1  0.083325  0.125006  -0.000034  1
  Ti  Ti33  1  0.583350  0.125024  -0.000025  1
  Ti  Ti34  1  0.083299  0.624996  -0.000004  1
  Ti  Ti35  1  0.583353  0.625017  -0.000005  1
  Ti  Ti36  1  0.359805  0.116619  0.402594  1
  Ti  Ti37  1  0.847436  0.136303  0.397023  1
  Ti  Ti38  1  0.331625  0.617222  0.401690  1
  Ti  Ti39  1  0.869912  0.569476  0.399959  1
  Ti  Ti40  1  0.337026  0.124452  0.234477  1
  Ti  Ti41  1  0.841147  0.120430  0.233721  1
  Ti  Ti42  1  0.339549  0.623985  0.236180  1
  Ti  Ti43  1  0.839188  0.624588  0.235896  1
  Ti  Ti44  1  0.333368  0.125056  0.077573  1
  Ti  Ti45  1  0.833303  0.125026  0.077569  1
  Ti  Ti46  1  0.333289  0.624999  0.077584  1
  Ti  Ti47  1  0.833327  0.625010  0.077641  1
  Ti  Ti48  1  0.375001  0.374979  0.823910  1
  Ti  Ti49  1  0.875010  0.374940  0.823800  1
  Ti  Ti50  1  0.375050  0.875025  0.823892  1
  Ti  Ti51  1  0.874947  0.874976  0.823853  1
  Ti  Ti52  1  0.125004  0.125013  0.823909  1
  Ti  Ti53  1  0.624998  0.125057  0.823799  1
  Ti  Ti54  1  0.124953  0.624966  0.823894  1
  Ti  Ti55  1  0.625058  0.625018  0.823855  1
  Ti  Ti56  1  0.124937  0.375009  0.910132  1
  Ti  Ti57  1  0.625056  0.375017  0.910105  1
  Ti  Ti58  1  0.124941  0.874972  0.910135  1
  Ti  Ti59  1  0.625037  0.874989  0.910093  1
  Ti  Ti60  1  0.375068  0.124990  0.910131  1
  Ti  Ti61  1  0.874948  0.124980  0.910104  1
  Ti  Ti62  1  0.375065  0.625023  0.910136  1
  Ti  Ti63  1  0.874969  0.625010  0.910094  1
  Ti  Ti64  1  0.389907  0.365521  0.645600  1
  Ti  Ti65  1  0.887951  0.363178  0.666611  1
  Ti  Ti66  1  0.382853  0.860682  0.664440  1
  Ti  Ti67  1  0.891301  0.863580  0.647504  1
  Ti  Ti68  1  0.110091  0.134475  0.645600  1
  Ti  Ti69  1  0.612046  0.136818  0.666611  1
  Ti  Ti70  1  0.117144  0.639311  0.664440  1
  Ti  Ti71  1  0.608697  0.636415  0.647504  1
  Ti  Ti72  1  0.135985  0.396160  0.574889  1
  Ti  Ti73  1  0.652373  0.379882  0.578779  1
  Ti  Ti74  1  0.154855  0.881976  0.572167  1
  Ti  Ti75  1  0.625345  0.905279  0.582656  1
  Ti  Ti76  1  0.364014  0.103838  0.574889  1
  Ti  Ti77  1  0.847627  0.120117  0.578779  1
  Ti  Ti78  1  0.345144  0.618022  0.572167  1
  Ti  Ti79  1  0.874654  0.594719  0.582656  1
  Ti  Ti80  1  0.377645  0.360609  0.488303  1
  Ti  Ti81  1  0.902768  0.348521  0.493953  1
  Ti  Ti82  1  0.411910  0.850772  0.486996  1
  Ti  Ti83  1  0.930983  0.920441  0.482384  1
  Ti  Ti84  1  0.122354  0.139390  0.488303  1
  Ti  Ti85  1  0.597232  0.151478  0.493953  1
  Ti  Ti86  1  0.088089  0.649228  0.486996  1
  Ti  Ti87  1  0.569016  0.579559  0.482384  1
  Ti  Ti88  1  0.125150  0.874902  0.737769  1
  Ti  Ti89  1  0.624885  0.875240  0.737616  1
  Ti  Ti90  1  0.374837  0.625070  0.737770  1
  Ti  Ti91  1  0.875109  0.624741  0.737619  1
  Ti  Ti92  1  0.124992  0.374911  0.737667  1
  Ti  Ti93  1  0.625142  0.374830  0.737660  1
  Ti  Ti94  1  0.374999  0.125071  0.737666  1
  Ti  Ti95  1  0.874850  0.125150  0.737658  1
  Al  Al96  1  0.750000  0.750000  0.460191  1
