# generated using pymatgen
data_Ti96Sn
_symmetry_space_group_name_H-M   'P 1'
_cell_length_a   9.51302000
_cell_length_b   9.35086000
_cell_length_c   18.54723000
_cell_angle_alpha   90.00000000
_cell_angle_beta   90.00000000
_cell_angle_gamma   90.00000000
_symmetry_Int_Tables_number   1
_chemical_formula_structural   Ti96Sn
_chemical_formula_sum   'Ti96 Sn1'
_cell_volume   1649.86732743
_cell_formula_units_Z   1
loop_
 _symmetry_equiv_pos_site_id
 _symmetry_equiv_pos_as_xyz
  1  'x, y, z'
loop_
 _atom_site_type_symbol
 _atom_site_label
 _atom_site_symmetry_multiplicity
 _atom_site_fract_x
 _atom_site_fract_y
 _atom_site_fract_z
 _atom_site_occupancy
  Ti  Ti0  1  0.145799  0.379273  0.401449  1
  Ti  Ti1  1  0.657013  0.342641  0.392537  1
  Ti  Ti2  1  0.129568  0.860097  0.398694  1
  Ti  Ti3  1  0.674853  0.862838  0.403473  1
  Ti  Ti4  1  0.162444  0.369947  0.236361  1
  Ti  Ti5  1  0.655398  0.373446  0.233763  1
  Ti  Ti6  1  0.165368  0.874846  0.234326  1
  Ti  Ti7  1  0.657446  0.871288  0.234152  1
  Ti  Ti8  1  0.166674  0.375036  0.077661  1
  Ti  Ti9  1  0.666677  0.375010  0.077635  1
  Ti  Ti10  1  0.166665  0.874989  0.077677  1
  Ti  Ti11  1  0.666683  0.874984  0.077651  1
  Ti  Ti12  1  0.405073  0.395313  0.318623  1
  Ti  Ti13  1  0.905963  0.378765  0.318150  1
  Ti  Ti14  1  0.398120  0.884503  0.325735  1
  Ti  Ti15  1  0.907451  0.880640  0.310155  1
  Ti  Ti16  1  0.416692  0.375005  0.155250  1
  Ti  Ti17  1  0.916682  0.374970  0.155238  1
  Ti  Ti18  1  0.416661  0.875000  0.155279  1
  Ti  Ti19  1  0.916691  0.874975  0.155264  1
  Ti  Ti20  1  0.416663  0.375035  -0.000023  1
  Ti  Ti21  1  0.916637  0.375022  -0.000013  1
  Ti  Ti22  1  0.416658  0.874977  -0.000041  1
  Ti  Ti23  1  0.916649  0.874986  -0.000024  1
  Ti  Ti24  1  0.094037  0.121236  0.318149  1
  Ti  Ti25  1  0.594927  0.104688  0.318622  1
  Ti  Ti26  1  0.092549  0.619360  0.310154  1
  Ti  Ti27  1  0.601880  0.615497  0.325734  1
  Ti  Ti28  1  0.083318  0.125040  0.155238  1
  Ti  Ti29  1  0.583308  0.125004  0.155250  1
  Ti  Ti30  1  0.083309  0.625035  0.155264  1
  Ti  Ti31  1  0.583340  0.625009  0.155278  1
  Ti  Ti32  1  0.083365  0.124985  -0.000012  1
  Ti  Ti33  1  0.583338  0.124974  -0.000021  1
  Ti  Ti34  1  0.083352  0.625026  -0.000024  1
  Ti  Ti35  1  0.583343  0.625034  -0.000041  1
  Ti  Ti36  1  0.342986  0.157359  0.392537  1
  Ti  Ti37  1  0.854200  0.120727  0.401449  1
  Ti  Ti38  1  0.325146  0.637162  0.403473  1
  Ti  Ti39  1  0.870431  0.639903  0.398694  1
  Ti  Ti40  1  0.344601  0.126556  0.233763  1
  Ti  Ti41  1  0.837555  0.130055  0.236362  1
  Ti  Ti42  1  0.342553  0.628714  0.234152  1
  Ti  Ti43  1  0.834631  0.625156  0.234326  1
  Ti  Ti44  1  0.333322  0.124999  0.077636  1
  Ti  Ti45  1  0.833326  0.124973  0.077662  1
  Ti  Ti46  1  0.333316  0.625026  0.077651  1
  Ti  Ti47  1  0.833335  0.625020  0.077677  1
  Ti  Ti48  1  0.374970  0.375046  0.823920  1
  Ti  Ti49  1  0.874983  0.374974  0.823925  1
  Ti  Ti50  1  0.375048  0.874903  0.823794  1
  Ti  Ti51  1  0.875052  0.874986  0.823853  1
  Ti  Ti52  1  0.125021  0.125016  0.823925  1
  Ti  Ti53  1  0.625036  0.124955  0.823921  1
  Ti  Ti54  1  0.124953  0.625014  0.823854  1
  Ti  Ti55  1  0.624956  0.625090  0.823795  1
  Ti  Ti56  1  0.124983  0.375032  0.910181  1
  Ti  Ti57  1  0.625009  0.375027  0.910168  1
  Ti  Ti58  1  0.125026  0.874963  0.910143  1
  Ti  Ti59  1  0.624993  0.874966  0.910133  1
  Ti  Ti60  1  0.374997  0.124972  0.910169  1
  Ti  Ti61  1  0.875023  0.124966  0.910181  1
  Ti  Ti62  1  0.375011  0.625035  0.910132  1
  Ti  Ti63  1  0.874979  0.625037  0.910142  1
  Ti  Ti64  1  0.386229  0.375394  0.668058  1
  Ti  Ti65  1  0.879047  0.391077  0.646525  1
  Ti  Ti66  1  0.382991  0.890458  0.654861  1
  Ti  Ti67  1  0.895807  0.881033  0.661471  1
  Ti  Ti68  1  0.120952  0.108920  0.646524  1
  Ti  Ti69  1  0.613769  0.124601  0.668058  1
  Ti  Ti70  1  0.104190  0.618962  0.661472  1
  Ti  Ti71  1  0.617008  0.609538  0.654861  1
  Ti  Ti72  1  0.137745  0.363401  0.574684  1
  Ti  Ti73  1  0.629046  0.344816  0.574670  1
  Ti  Ti74  1  0.147659  0.849809  0.571885  1
  Ti  Ti75  1  0.674592  0.912783  0.579536  1
  Ti  Ti76  1  0.370953  0.155182  0.574670  1
  Ti  Ti77  1  0.862254  0.136598  0.574683  1
  Ti  Ti78  1  0.325408  0.587216  0.579536  1
  Ti  Ti79  1  0.852340  0.650189  0.571885  1
  Ti  Ti80  1  0.398190  0.388282  0.480471  1
  Ti  Ti81  1  0.888413  0.375056  0.488296  1
  Ti  Ti82  1  0.340902  0.946415  0.478273  1
  Ti  Ti83  1  0.913211  0.894726  0.491617  1
  Ti  Ti84  1  0.111587  0.124943  0.488296  1
  Ti  Ti85  1  0.601810  0.111717  0.480471  1
  Ti  Ti86  1  0.086789  0.605274  0.491617  1
  Ti  Ti87  1  0.659098  0.553584  0.478273  1
  Ti  Ti88  1  0.125413  0.875030  0.737698  1
  Ti  Ti89  1  0.625063  0.874844  0.737683  1
  Ti  Ti90  1  0.374928  0.625139  0.737681  1
  Ti  Ti91  1  0.874578  0.624952  0.737702  1
  Ti  Ti92  1  0.124795  0.374881  0.737759  1
  Ti  Ti93  1  0.625100  0.374831  0.737768  1
  Ti  Ti94  1  0.374891  0.125146  0.737767  1
  Ti  Ti95  1  0.875195  0.125096  0.737756  1
  Sn  Sn96  1  0.500000  0.750000  0.513037  1
