# generated using pymatgen
data_Ti96Cr
_symmetry_space_group_name_H-M   'P 1'
_cell_length_a   9.51302000
_cell_length_b   9.35086000
_cell_length_c   18.54723000
_cell_angle_alpha   90.00000000
_cell_angle_beta   90.00000000
_cell_angle_gamma   90.00000000
_symmetry_Int_Tables_number   1
_chemical_formula_structural   Ti96Cr
_chemical_formula_sum   'Ti96 Cr1'
_cell_volume   1649.86732743
_cell_formula_units_Z   1
loop_
 _symmetry_equiv_pos_site_id
 _symmetry_equiv_pos_as_xyz
  1  'x, y, z'
loop_
 _atom_site_type_symbol
 _atom_site_label
 _atom_site_symmetry_multiplicity
 _atom_site_fract_x
 _atom_site_fract_y
 _atom_site_fract_z
 _atom_site_occupancy
  Ti  Ti0  1  0.142004  0.379148  0.405435  1
  Ti  Ti1  1  0.646605  0.360971  0.407067  1
  Ti  Ti2  1  0.167241  0.884836  0.403467  1
  Ti  Ti3  1  0.640359  0.932114  0.414089  1
  Ti  Ti4  1  0.159913  0.380667  0.237096  1
  Ti  Ti5  1  0.659490  0.376014  0.231798  1
  Ti  Ti6  1  0.162461  0.876136  0.237988  1
  Ti  Ti7  1  0.656568  0.883370  0.235099  1
  Ti  Ti8  1  0.166645  0.375004  0.077532  1
  Ti  Ti9  1  0.666704  0.375018  0.077627  1
  Ti  Ti10  1  0.166664  0.874989  0.077547  1
  Ti  Ti11  1  0.666683  0.874967  0.077734  1
  Ti  Ti12  1  0.397913  0.364260  0.319762  1
  Ti  Ti13  1  0.905413  0.363712  0.313696  1
  Ti  Ti14  1  0.417311  0.861081  0.323975  1
  Ti  Ti15  1  0.918201  0.900545  0.323173  1
  Ti  Ti16  1  0.416699  0.375006  0.155126  1
  Ti  Ti17  1  0.916697  0.374978  0.155203  1
  Ti  Ti18  1  0.416792  0.875050  0.155227  1
  Ti  Ti19  1  0.916531  0.874896  0.155332  1
  Ti  Ti20  1  0.416692  0.375011  -0.000055  1
  Ti  Ti21  1  0.916627  0.375013  -0.000014  1
  Ti  Ti22  1  0.416714  0.874991  -0.000019  1
  Ti  Ti23  1  0.916603  0.874975  0.000022  1
  Ti  Ti24  1  0.102088  0.135741  0.319761  1
  Ti  Ti25  1  0.594587  0.136289  0.313695  1
  Ti  Ti26  1  0.082689  0.638920  0.323974  1
  Ti  Ti27  1  0.581799  0.599456  0.323172  1
  Ti  Ti28  1  0.083305  0.125011  0.155127  1
  Ti  Ti29  1  0.583300  0.125036  0.155202  1
  Ti  Ti30  1  0.083211  0.624963  0.155228  1
  Ti  Ti31  1  0.583468  0.625113  0.155331  1
  Ti  Ti32  1  0.083311  0.124994  -0.000055  1
  Ti  Ti33  1  0.583369  0.124991  -0.000013  1
  Ti  Ti34  1  0.083287  0.625011  -0.000021  1
  Ti  Ti35  1  0.583394  0.625026  0.000020  1
  Ti  Ti36  1  0.357995  0.120852  0.405435  1
  Ti  Ti37  1  0.853394  0.139029  0.407067  1
  Ti  Ti38  1  0.332758  0.615164  0.403467  1
  Ti  Ti39  1  0.859639  0.567886  0.414089  1
  Ti  Ti40  1  0.340087  0.119336  0.237096  1
  Ti  Ti41  1  0.840509  0.123989  0.231798  1
  Ti  Ti42  1  0.337539  0.623867  0.237988  1
  Ti  Ti43  1  0.843431  0.616632  0.235099  1
  Ti  Ti44  1  0.333354  0.125009  0.077533  1
  Ti  Ti45  1  0.833296  0.124991  0.077628  1
  Ti  Ti46  1  0.333334  0.625024  0.077547  1
  Ti  Ti47  1  0.833316  0.625039  0.077733  1
  Ti  Ti48  1  0.374950  0.375039  0.823825  1
  Ti  Ti49  1  0.874992  0.375029  0.823846  1
  Ti  Ti50  1  0.375022  0.874956  0.823823  1
  Ti  Ti51  1  0.875005  0.874939  0.823762  1
  Ti  Ti52  1  0.125049  0.124954  0.823825  1
  Ti  Ti53  1  0.625008  0.124964  0.823848  1
  Ti  Ti54  1  0.124981  0.625035  0.823821  1
  Ti  Ti55  1  0.625000  0.625055  0.823761  1
  Ti  Ti56  1  0.124937  0.375042  0.910124  1
  Ti  Ti57  1  0.625044  0.375079  0.910153  1
  Ti  Ti58  1  0.124919  0.874961  0.910137  1
  Ti  Ti59  1  0.625070  0.874939  0.910177  1
  Ti  Ti60  1  0.375066  0.124953  0.910126  1
  Ti  Ti61  1  0.874958  0.124913  0.910155  1
  Ti  Ti62  1  0.375083  0.625029  0.910136  1
  Ti  Ti63  1  0.874931  0.625051  0.910175  1
  Ti  Ti64  1  0.397349  0.366628  0.649176  1
  Ti  Ti65  1  0.895616  0.367195  0.657439  1
  Ti  Ti66  1  0.393795  0.865560  0.656445  1
  Ti  Ti67  1  0.897917  0.864911  0.652908  1
  Ti  Ti68  1  0.102650  0.133370  0.649176  1
  Ti  Ti69  1  0.604383  0.132802  0.657439  1
  Ti  Ti70  1  0.106204  0.634437  0.656444  1
  Ti  Ti71  1  0.602082  0.635087  0.652908  1
  Ti  Ti72  1  0.152127  0.388836  0.572499  1
  Ti  Ti73  1  0.653852  0.389885  0.574885  1
  Ti  Ti74  1  0.151175  0.878848  0.572323  1
  Ti  Ti75  1  0.645072  0.883359  0.575801  1
  Ti  Ti76  1  0.347872  0.111163  0.572499  1
  Ti  Ti77  1  0.846147  0.110114  0.574885  1
  Ti  Ti78  1  0.348825  0.621151  0.572323  1
  Ti  Ti79  1  0.854928  0.616641  0.575801  1
  Ti  Ti80  1  0.395825  0.368796  0.490988  1
  Ti  Ti81  1  0.906877  0.354540  0.499654  1
  Ti  Ti82  1  0.404037  0.860670  0.488381  1
  Ti  Ti83  1  0.907140  0.873686  0.480553  1
  Ti  Ti84  1  0.104175  0.131204  0.490988  1
  Ti  Ti85  1  0.593123  0.145460  0.499654  1
  Ti  Ti86  1  0.095963  0.639329  0.488381  1
  Ti  Ti87  1  0.592860  0.626314  0.480553  1
  Ti  Ti88  1  0.125028  0.875022  0.737532  1
  Ti  Ti89  1  0.625037  0.874904  0.737516  1
  Ti  Ti90  1  0.374970  0.624966  0.737532  1
  Ti  Ti91  1  0.874960  0.625088  0.737514  1
  Ti  Ti92  1  0.125035  0.375029  0.737563  1
  Ti  Ti93  1  0.624790  0.375275  0.737598  1
  Ti  Ti94  1  0.374962  0.124959  0.737564  1
  Ti  Ti95  1  0.875204  0.124710  0.737601  1
  Cr  Cr96  1  0.750000  0.750000  0.372420  1
