# generated using pymatgen
data_ZrTi96
_symmetry_space_group_name_H-M   'P 1'
_cell_length_a   9.51302000
_cell_length_b   9.35086000
_cell_length_c   18.54723000
_cell_angle_alpha   90.00000000
_cell_angle_beta   90.00000000
_cell_angle_gamma   90.00000000
_symmetry_Int_Tables_number   1
_chemical_formula_structural   ZrTi96
_chemical_formula_sum   'Zr1 Ti96'
_cell_volume   1649.86732743
_cell_formula_units_Z   1
loop_
 _symmetry_equiv_pos_site_id
 _symmetry_equiv_pos_as_xyz
  1  'x, y, z'
loop_
 _atom_site_type_symbol
 _atom_site_label
 _atom_site_symmetry_multiplicity
 _atom_site_fract_x
 _atom_site_fract_y
 _atom_site_fract_z
 _atom_site_occupancy
  Ti  Ti0  1  0.148859  0.372610  0.397575  1
  Ti  Ti1  1  0.650649  0.373130  0.397538  1
  Ti  Ti2  1  0.166881  0.884663  0.388980  1
  Ti  Ti3  1  0.656955  0.893067  0.403150  1
  Ti  Ti4  1  0.162403  0.376521  0.236584  1
  Ti  Ti5  1  0.661426  0.376616  0.235087  1
  Ti  Ti6  1  0.160330  0.874631  0.234514  1
  Ti  Ti7  1  0.662718  0.875957  0.234795  1
  Ti  Ti8  1  0.166667  0.375001  0.077684  1
  Ti  Ti9  1  0.666665  0.374996  0.077684  1
  Ti  Ti10  1  0.166670  0.875007  0.077694  1
  Ti  Ti11  1  0.666666  0.875004  0.077691  1
  Ti  Ti12  1  0.411587  0.373562  0.315872  1
  Ti  Ti13  1  0.907502  0.373321  0.314668  1
  Ti  Ti14  1  0.415337  0.875863  0.316502  1
  Ti  Ti15  1  0.905659  0.870545  0.318219  1
  Ti  Ti16  1  0.416670  0.374991  0.155365  1
  Ti  Ti17  1  0.916661  0.374985  0.155365  1
  Ti  Ti18  1  0.416669  0.875019  0.155367  1
  Ti  Ti19  1  0.916685  0.875016  0.155366  1
  Ti  Ti20  1  0.416665  0.375003  -0.000005  1
  Ti  Ti21  1  0.916666  0.375001  -0.000003  1
  Ti  Ti22  1  0.416665  0.875001  0.000003  1
  Ti  Ti23  1  0.916669  0.875002  0.000005  1
  Ti  Ti24  1  0.088413  0.126438  0.315871  1
  Ti  Ti25  1  0.592498  0.126679  0.314667  1
  Ti  Ti26  1  0.084663  0.624137  0.316501  1
  Ti  Ti27  1  0.594341  0.629455  0.318218  1
  Ti  Ti28  1  0.083330  0.125010  0.155365  1
  Ti  Ti29  1  0.583339  0.125015  0.155365  1
  Ti  Ti30  1  0.083331  0.624981  0.155367  1
  Ti  Ti31  1  0.583315  0.624985  0.155366  1
  Ti  Ti32  1  0.083335  0.124999  -0.000006  1
  Ti  Ti33  1  0.583334  0.125000  -0.000003  1
  Ti  Ti34  1  0.083335  0.624999  0.000002  1
  Ti  Ti35  1  0.583331  0.624998  0.000005  1
  Ti  Ti36  1  0.351140  0.127390  0.397575  1
  Ti  Ti37  1  0.849350  0.126870  0.397538  1
  Ti  Ti38  1  0.333118  0.615337  0.388980  1
  Ti  Ti39  1  0.843044  0.606933  0.403150  1
  Ti  Ti40  1  0.337596  0.123479  0.236584  1
  Ti  Ti41  1  0.838573  0.123384  0.235087  1
  Ti  Ti42  1  0.339669  0.625369  0.234514  1
  Ti  Ti43  1  0.837281  0.624043  0.234795  1
  Ti  Ti44  1  0.333332  0.125000  0.077684  1
  Ti  Ti45  1  0.833334  0.125005  0.077684  1
  Ti  Ti46  1  0.333329  0.624993  0.077694  1
  Ti  Ti47  1  0.833333  0.624997  0.077691  1
  Ti  Ti48  1  0.374990  0.375019  0.823757  1
  Ti  Ti49  1  0.875002  0.375025  0.823750  1
  Ti  Ti50  1  0.375001  0.875004  0.823778  1
  Ti  Ti51  1  0.875009  0.874992  0.823763  1
  Ti  Ti52  1  0.125010  0.124982  0.823757  1
  Ti  Ti53  1  0.624998  0.124976  0.823750  1
  Ti  Ti54  1  0.124999  0.624996  0.823778  1
  Ti  Ti55  1  0.624992  0.625008  0.823762  1
  Ti  Ti56  1  0.124997  0.375005  0.910088  1
  Ti  Ti57  1  0.625001  0.375012  0.910083  1
  Ti  Ti58  1  0.125001  0.875002  0.910100  1
  Ti  Ti59  1  0.625002  0.874998  0.910095  1
  Ti  Ti60  1  0.375004  0.124995  0.910088  1
  Ti  Ti61  1  0.874999  0.124989  0.910083  1
  Ti  Ti62  1  0.375000  0.624998  0.910100  1
  Ti  Ti63  1  0.874998  0.625003  0.910094  1
  Ti  Ti64  1  0.400177  0.378947  0.645848  1
  Ti  Ti65  1  0.883814  0.344678  0.653128  1
  Ti  Ti66  1  0.369068  0.873050  0.673421  1
  Ti  Ti67  1  0.885009  0.873343  0.658662  1
  Ti  Ti68  1  0.099823  0.121052  0.645849  1
  Ti  Ti69  1  0.616185  0.155321  0.653128  1
  Ti  Ti70  1  0.130932  0.626949  0.673421  1
  Ti  Ti71  1  0.614991  0.626657  0.658662  1
  Ti  Ti72  1  0.148085  0.381280  0.574945  1
  Ti  Ti73  1  0.659558  0.402486  0.563371  1
  Ti  Ti74  1  0.144398  0.868142  0.576863  1
  Ti  Ti75  1  0.568941  0.920404  0.585090  1
  Ti  Ti76  1  0.351915  0.118720  0.574945  1
  Ti  Ti77  1  0.840442  0.097514  0.563371  1
  Ti  Ti78  1  0.355602  0.631858  0.576863  1
  Ti  Ti79  1  0.931059  0.579596  0.585090  1
  Ti  Ti80  1  0.384622  0.366134  0.487738  1
  Ti  Ti81  1  0.905645  0.354615  0.487914  1
  Ti  Ti82  1  0.378106  0.861223  0.479355  1
  Ti  Ti83  1  -0.053459  -0.105217  0.471634  1
  Ti  Ti84  1  0.115378  0.133866  0.487738  1
  Ti  Ti85  1  0.594355  0.145385  0.487914  1
  Ti  Ti86  1  0.121894  0.638777  0.479355  1
  Ti  Ti87  1  0.553459  0.605217  0.471634  1
  Ti  Ti88  1  0.125048  0.875038  0.737469  1
  Ti  Ti89  1  0.625012  0.875040  0.737477  1
  Ti  Ti90  1  0.374951  0.624960  0.737469  1
  Ti  Ti91  1  0.874987  0.624957  0.737478  1
  Ti  Ti92  1  0.125027  0.375025  0.737441  1
  Ti  Ti93  1  0.624956  0.375178  0.737453  1
  Ti  Ti94  1  0.374973  0.124974  0.737442  1
  Ti  Ti95  1  0.875043  0.124821  0.737454  1
  Zr  Zr96  1  0.750000  0.750000  0.531963  1
