# generated using pymatgen
data_Ti96Nb
_symmetry_space_group_name_H-M   'P 1'
_cell_length_a   9.51302000
_cell_length_b   9.35086000
_cell_length_c   18.54723000
_cell_angle_alpha   90.00000000
_cell_angle_beta   90.00000000
_cell_angle_gamma   90.00000000
_symmetry_Int_Tables_number   1
_chemical_formula_structural   Ti96Nb
_chemical_formula_sum   'Ti96 Nb1'
_cell_volume   1649.86732743
_cell_formula_units_Z   1
loop_
 _symmetry_equiv_pos_site_id
 _symmetry_equiv_pos_as_xyz
  1  'x, y, z'
loop_
 _atom_site_type_symbol
 _atom_site_label
 _atom_site_symmetry_multiplicity
 _atom_site_fract_x
 _atom_site_fract_y
 _atom_site_fract_z
 _atom_site_occupancy
  Ti  Ti0  1  0.131508  0.358238  0.406075  1
  Ti  Ti1  1  0.647840  0.354182  0.407368  1
  Ti  Ti2  1  0.173265  0.855232  0.399165  1
  Ti  Ti3  1  0.684153  0.928687  0.403176  1
  Ti  Ti4  1  0.158445  0.380558  0.237528  1
  Ti  Ti5  1  0.667495  0.366402  0.227834  1
  Ti  Ti6  1  0.158779  0.873305  0.233929  1
  Ti  Ti7  1  0.655887  0.859545  0.246567  1
  Ti  Ti8  1  0.166666  0.375000  0.077689  1
  Ti  Ti9  1  0.666666  0.375000  0.077689  1
  Ti  Ti10  1  0.166666  0.875000  0.077689  1
  Ti  Ti11  1  0.666666  0.875000  0.077689  1
  Ti  Ti12  1  0.403902  0.365451  0.311278  1
  Ti  Ti13  1  0.897169  0.376978  0.318047  1
  Ti  Ti14  1  0.398532  0.912986  0.312173  1
  Ti  Ti15  1  0.918509  0.879553  0.320343  1
  Ti  Ti16  1  0.416667  0.375000  0.155379  1
  Ti  Ti17  1  0.916667  0.375000  0.155379  1
  Ti  Ti18  1  0.416667  0.875000  0.155379  1
  Ti  Ti19  1  0.916667  0.875000  0.155379  1
  Ti  Ti20  1  0.416667  0.375000  0.000000  1
  Ti  Ti21  1  0.916667  0.375000  0.000000  1
  Ti  Ti22  1  0.416667  0.875000  0.000000  1
  Ti  Ti23  1  0.916667  0.875000  0.000000  1
  Ti  Ti24  1  0.102831  0.123022  0.318046  1
  Ti  Ti25  1  0.596098  0.134549  0.311277  1
  Ti  Ti26  1  0.081491  0.620447  0.320342  1
  Ti  Ti27  1  0.601468  0.587014  0.312172  1
  Ti  Ti28  1  0.083333  0.125000  0.155379  1
  Ti  Ti29  1  0.583333  0.125000  0.155379  1
  Ti  Ti30  1  0.083333  0.625000  0.155379  1
  Ti  Ti31  1  0.583333  0.625000  0.155379  1
  Ti  Ti32  1  0.083333  0.125000  0.000000  1
  Ti  Ti33  1  0.583333  0.125000  0.000000  1
  Ti  Ti34  1  0.083333  0.625000  0.000000  1
  Ti  Ti35  1  0.583333  0.625000  0.000000  1
  Ti  Ti36  1  0.352159  0.145818  0.407368  1
  Ti  Ti37  1  0.868491  0.141762  0.406075  1
  Ti  Ti38  1  0.315846  0.571313  0.403176  1
  Ti  Ti39  1  0.826734  0.644768  0.399165  1
  Ti  Ti40  1  0.332504  0.133598  0.227834  1
  Ti  Ti41  1  0.841554  0.119442  0.237528  1
  Ti  Ti42  1  0.344112  0.640455  0.246567  1
  Ti  Ti43  1  0.841220  0.626695  0.233929  1
  Ti  Ti44  1  0.333333  0.125000  0.077689  1
  Ti  Ti45  1  0.833333  0.125000  0.077689  1
  Ti  Ti46  1  0.333333  0.625000  0.077689  1
  Ti  Ti47  1  0.833333  0.625000  0.077689  1
  Ti  Ti48  1  0.375000  0.375000  0.823738  1
  Ti  Ti49  1  0.875000  0.375000  0.823738  1
  Ti  Ti50  1  0.375000  0.875000  0.823738  1
  Ti  Ti51  1  0.875000  0.875000  0.823738  1
  Ti  Ti52  1  0.125000  0.125000  0.823738  1
  Ti  Ti53  1  0.625000  0.125000  0.823738  1
  Ti  Ti54  1  0.125000  0.625000  0.823738  1
  Ti  Ti55  1  0.625000  0.625000  0.823738  1
  Ti  Ti56  1  0.125000  0.375000  0.910084  1
  Ti  Ti57  1  0.625000  0.375000  0.910084  1
  Ti  Ti58  1  0.125000  0.875000  0.910084  1
  Ti  Ti59  1  0.625000  0.875000  0.910084  1
  Ti  Ti60  1  0.375000  0.125000  0.910084  1
  Ti  Ti61  1  0.875000  0.125000  0.910084  1
  Ti  Ti62  1  0.375000  0.625000  0.910084  1
  Ti  Ti63  1  0.875000  0.625000  0.910084  1
  Ti  Ti64  1  0.390584  0.397042  0.654138  1
  Ti  Ti65  1  0.902434  0.377463  0.650278  1
  Ti  Ti66  1  0.391694  0.881053  0.653819  1
  Ti  Ti67  1  0.882906  0.884704  0.662601  1
  Ti  Ti68  1  0.097566  0.122537  0.650278  1
  Ti  Ti69  1  0.609416  0.102958  0.654138  1
  Ti  Ti70  1  0.117094  0.615296  0.662601  1
  Ti  Ti71  1  0.608306  0.618947  0.653819  1
  Ti  Ti72  1  0.149998  0.380221  0.565650  1
  Ti  Ti73  1  0.652356  0.353602  0.586211  1
  Ti  Ti74  1  0.132845  0.858367  0.581554  1
  Ti  Ti75  1  0.648798  0.854192  0.563483  1
  Ti  Ti76  1  0.347644  0.146398  0.586211  1
  Ti  Ti77  1  0.850002  0.119779  0.565650  1
  Ti  Ti78  1  0.351202  0.645808  0.563483  1
  Ti  Ti79  1  0.867155  0.641633  0.581554  1
  Ti  Ti80  1  0.407082  0.373474  0.498692  1
  Ti  Ti81  1  0.890403  0.381751  0.491919  1
  Ti  Ti82  1  0.373632  0.917732  0.501925  1
  Ti  Ti83  1  0.917000  0.876506  0.482475  1
  Ti  Ti84  1  0.109597  0.118249  0.491919  1
  Ti  Ti85  1  0.592918  0.126526  0.498692  1
  Ti  Ti86  1  0.083000  0.623494  0.482475  1
  Ti  Ti87  1  0.626368  0.582268  0.501925  1
  Ti  Ti88  1  0.125000  0.875000  0.737395  1
  Ti  Ti89  1  0.625000  0.875000  0.737395  1
  Ti  Ti90  1  0.375000  0.625000  0.737395  1
  Ti  Ti91  1  0.875000  0.625000  0.737395  1
  Ti  Ti92  1  0.125000  0.375000  0.737395  1
  Ti  Ti93  1  0.625000  0.375000  0.737395  1
  Ti  Ti94  1  0.375000  0.125000  0.737395  1
  Ti  Ti95  1  0.875000  0.125000  0.737395  1
  Nb  Nb96  1  0.500000  0.750000  0.412054  1
