# generated using pymatgen
data_Ti96Cr
_symmetry_space_group_name_H-M   'P 1'
_cell_length_a   9.51302000
_cell_length_b   9.35086000
_cell_length_c   18.54723000
_cell_angle_alpha   90.00000000
_cell_angle_beta   90.00000000
_cell_angle_gamma   90.00000000
_symmetry_Int_Tables_number   1
_chemical_formula_structural   Ti96Cr
_chemical_formula_sum   'Ti96 Cr1'
_cell_volume   1649.86732743
_cell_formula_units_Z   1
loop_
 _symmetry_equiv_pos_site_id
 _symmetry_equiv_pos_as_xyz
  1  'x, y, z'
loop_
 _atom_site_type_symbol
 _atom_site_label
 _atom_site_symmetry_multiplicity
 _atom_site_fract_x
 _atom_site_fract_y
 _atom_site_fract_z
 _atom_site_occupancy
  Ti  Ti0  1  0.140891  0.384701  0.404953  1
  Ti  Ti1  1  0.652180  0.365556  0.392383  1
  Ti  Ti2  1  0.167414  0.883431  0.405265  1
  Ti  Ti3  1  0.650267  0.910357  0.396497  1
  Ti  Ti4  1  0.164736  0.377840  0.235047  1
  Ti  Ti5  1  0.659130  0.382339  0.236481  1
  Ti  Ti6  1  0.156774  0.875147  0.235873  1
  Ti  Ti7  1  0.658848  0.872515  0.236341  1
  Ti  Ti8  1  0.166666  0.375000  0.077689  1
  Ti  Ti9  1  0.666666  0.375000  0.077689  1
  Ti  Ti10  1  0.166666  0.875000  0.077689  1
  Ti  Ti11  1  0.666666  0.875000  0.077689  1
  Ti  Ti12  1  0.401594  0.375183  0.320282  1
  Ti  Ti13  1  0.915910  0.367114  0.308820  1
  Ti  Ti14  1  0.402798  0.869901  0.317842  1
  Ti  Ti15  1  0.904651  0.858003  0.331197  1
  Ti  Ti16  1  0.416667  0.375000  0.155379  1
  Ti  Ti17  1  0.916667  0.375000  0.155379  1
  Ti  Ti18  1  0.416667  0.875000  0.155379  1
  Ti  Ti19  1  0.916667  0.875000  0.155379  1
  Ti  Ti20  1  0.416667  0.375000  0.000000  1
  Ti  Ti21  1  0.916667  0.375000  0.000000  1
  Ti  Ti22  1  0.416667  0.875000  0.000000  1
  Ti  Ti23  1  0.916667  0.875000  0.000000  1
  Ti  Ti24  1  0.098406  0.124817  0.320281  1
  Ti  Ti25  1  0.584090  0.132886  0.308819  1
  Ti  Ti26  1  0.097202  0.630099  0.317841  1
  Ti  Ti27  1  0.595349  0.641997  0.331196  1
  Ti  Ti28  1  0.083333  0.125000  0.155379  1
  Ti  Ti29  1  0.583333  0.125000  0.155379  1
  Ti  Ti30  1  0.083333  0.625000  0.155379  1
  Ti  Ti31  1  0.583333  0.625000  0.155379  1
  Ti  Ti32  1  0.083333  0.125000  0.000000  1
  Ti  Ti33  1  0.583333  0.125000  0.000000  1
  Ti  Ti34  1  0.083333  0.625000  0.000000  1
  Ti  Ti35  1  0.583333  0.625000  0.000000  1
  Ti  Ti36  1  0.359108  0.115299  0.404953  1
  Ti  Ti37  1  0.847819  0.134444  0.392383  1
  Ti  Ti38  1  0.332585  0.616569  0.405265  1
  Ti  Ti39  1  0.849732  0.589643  0.396497  1
  Ti  Ti40  1  0.335263  0.122160  0.235047  1
  Ti  Ti41  1  0.840869  0.117661  0.236481  1
  Ti  Ti42  1  0.343225  0.624853  0.235873  1
  Ti  Ti43  1  0.841151  0.627485  0.236341  1
  Ti  Ti44  1  0.333333  0.125000  0.077689  1
  Ti  Ti45  1  0.833333  0.125000  0.077689  1
  Ti  Ti46  1  0.333333  0.625000  0.077689  1
  Ti  Ti47  1  0.833333  0.625000  0.077689  1
  Ti  Ti48  1  0.375000  0.375000  0.823738  1
  Ti  Ti49  1  0.875000  0.375000  0.823738  1
  Ti  Ti50  1  0.375000  0.875000  0.823738  1
  Ti  Ti51  1  0.875000  0.875000  0.823738  1
  Ti  Ti52  1  0.125000  0.125000  0.823738  1
  Ti  Ti53  1  0.625000  0.125000  0.823738  1
  Ti  Ti54  1  0.125000  0.625000  0.823738  1
  Ti  Ti55  1  0.625000  0.625000  0.823738  1
  Ti  Ti56  1  0.125000  0.375000  0.910084  1
  Ti  Ti57  1  0.625000  0.375000  0.910084  1
  Ti  Ti58  1  0.125000  0.875000  0.910084  1
  Ti  Ti59  1  0.625000  0.875000  0.910084  1
  Ti  Ti60  1  0.375000  0.125000  0.910084  1
  Ti  Ti61  1  0.875000  0.125000  0.910084  1
  Ti  Ti62  1  0.375000  0.625000  0.910084  1
  Ti  Ti63  1  0.875000  0.625000  0.910084  1
  Ti  Ti64  1  0.386706  0.366338  0.647090  1
  Ti  Ti65  1  0.893227  0.368681  0.667329  1
  Ti  Ti66  1  0.389560  0.859098  0.657511  1
  Ti  Ti67  1  0.898933  0.858964  0.641830  1
  Ti  Ti68  1  0.113294  0.133662  0.647090  1
  Ti  Ti69  1  0.606773  0.131319  0.667329  1
  Ti  Ti70  1  0.110440  0.640902  0.657511  1
  Ti  Ti71  1  0.601067  0.641036  0.641830  1
  Ti  Ti72  1  0.133895  0.395295  0.570052  1
  Ti  Ti73  1  0.650126  0.369831  0.583188  1
  Ti  Ti74  1  0.164358  0.882704  0.566830  1
  Ti  Ti75  1  0.641185  0.905766  0.577435  1
  Ti  Ti76  1  0.366105  0.104705  0.570052  1
  Ti  Ti77  1  0.849874  0.130169  0.583188  1
  Ti  Ti78  1  0.335642  0.617296  0.566830  1
  Ti  Ti79  1  0.858815  0.594234  0.577435  1
  Ti  Ti80  1  0.386401  0.357744  0.488064  1
  Ti  Ti81  1  0.892597  0.351799  0.489391  1
  Ti  Ti82  1  0.427738  0.848098  0.483290  1
  Ti  Ti83  1  0.916360  0.919589  0.486402  1
  Ti  Ti84  1  0.113599  0.142256  0.488064  1
  Ti  Ti85  1  0.607403  0.148201  0.489391  1
  Ti  Ti86  1  0.072262  0.651902  0.483290  1
  Ti  Ti87  1  0.583640  0.580411  0.486402  1
  Ti  Ti88  1  0.125000  0.875000  0.737395  1
  Ti  Ti89  1  0.625000  0.875000  0.737395  1
  Ti  Ti90  1  0.375000  0.625000  0.737395  1
  Ti  Ti91  1  0.875000  0.625000  0.737395  1
  Ti  Ti92  1  0.125000  0.375000  0.737395  1
  Ti  Ti93  1  0.625000  0.375000  0.737395  1
  Ti  Ti94  1  0.375000  0.125000  0.737395  1
  Ti  Ti95  1  0.875000  0.125000  0.737395  1
  Cr  Cr96  1  0.750000  0.750000  0.486640  1
