# generated using pymatgen
data_Ti96Al
_symmetry_space_group_name_H-M   'P 1'
_cell_length_a   9.51302000
_cell_length_b   9.35086000
_cell_length_c   18.54723000
_cell_angle_alpha   90.00000000
_cell_angle_beta   90.00000000
_cell_angle_gamma   90.00000000
_symmetry_Int_Tables_number   1
_chemical_formula_structural   Ti96Al
_chemical_formula_sum   'Ti96 Al1'
_cell_volume   1649.86732743
_cell_formula_units_Z   1
loop_
 _symmetry_equiv_pos_site_id
 _symmetry_equiv_pos_as_xyz
  1  'x, y, z'
loop_
 _atom_site_type_symbol
 _atom_site_label
 _atom_site_symmetry_multiplicity
 _atom_site_fract_x
 _atom_site_fract_y
 _atom_site_fract_z
 _atom_site_occupancy
  Ti  Ti0  1  0.147001  0.373301  0.404838  1
  Ti  Ti1  1  0.645090  0.341614  0.405157  1
  Ti  Ti2  1  0.138954  0.856218  0.394045  1
  Ti  Ti3  1  0.673807  0.885548  0.391078  1
  Ti  Ti4  1  0.161250  0.373170  0.235324  1
  Ti  Ti5  1  0.661946  0.376255  0.233987  1
  Ti  Ti6  1  0.164747  0.874727  0.235357  1
  Ti  Ti7  1  0.654669  0.869970  0.237446  1
  Ti  Ti8  1  0.166665  0.375008  0.077689  1
  Ti  Ti9  1  0.666665  0.375002  0.077690  1
  Ti  Ti10  1  0.166674  0.875008  0.077699  1
  Ti  Ti11  1  0.666667  0.874998  0.077697  1
  Ti  Ti12  1  0.407109  0.377172  0.311941  1
  Ti  Ti13  1  0.898720  0.372798  0.320538  1
  Ti  Ti14  1  0.403544  0.893753  0.330761  1
  Ti  Ti15  1  0.914448  0.883618  0.309847  1
  Ti  Ti16  1  0.416671  0.374996  0.155342  1
  Ti  Ti17  1  0.916662  0.374994  0.155347  1
  Ti  Ti18  1  0.416660  0.875001  0.155370  1
  Ti  Ti19  1  0.916688  0.875018  0.155353  1
  Ti  Ti20  1  0.416667  0.375001  0.000001  1
  Ti  Ti21  1  0.916664  0.375000  0.000000  1
  Ti  Ti22  1  0.416665  0.874999  0.000009  1
  Ti  Ti23  1  0.916671  0.875001  0.000004  1
  Ti  Ti24  1  0.101280  0.127202  0.320537  1
  Ti  Ti25  1  0.592891  0.122828  0.311940  1
  Ti  Ti26  1  0.085552  0.616382  0.309846  1
  Ti  Ti27  1  0.596456  0.606247  0.330760  1
  Ti  Ti28  1  0.083338  0.125007  0.155347  1
  Ti  Ti29  1  0.583329  0.125005  0.155342  1
  Ti  Ti30  1  0.083311  0.624983  0.155353  1
  Ti  Ti31  1  0.583340  0.625000  0.155370  1
  Ti  Ti32  1  0.083336  0.125001  0.000000  1
  Ti  Ti33  1  0.583333  0.124999  0.000001  1
  Ti  Ti34  1  0.083329  0.625000  0.000004  1
  Ti  Ti35  1  0.583335  0.625001  0.000009  1
  Ti  Ti36  1  0.354909  0.158386  0.405157  1
  Ti  Ti37  1  0.852998  0.126699  0.404838  1
  Ti  Ti38  1  0.326192  0.614452  0.391078  1
  Ti  Ti39  1  0.861045  0.643782  0.394045  1
  Ti  Ti40  1  0.338053  0.123745  0.233987  1
  Ti  Ti41  1  0.838749  0.126831  0.235324  1
  Ti  Ti42  1  0.345330  0.630030  0.237446  1
  Ti  Ti43  1  0.835252  0.625273  0.235357  1
  Ti  Ti44  1  0.333334  0.124998  0.077690  1
  Ti  Ti45  1  0.833334  0.124993  0.077689  1
  Ti  Ti46  1  0.333332  0.625002  0.077697  1
  Ti  Ti47  1  0.833325  0.624992  0.077699  1
  Ti  Ti48  1  0.374997  0.375005  0.823756  1
  Ti  Ti49  1  0.875002  0.374997  0.823754  1
  Ti  Ti50  1  0.375000  0.875003  0.823750  1
  Ti  Ti51  1  0.874999  0.874996  0.823750  1
  Ti  Ti52  1  0.124998  0.125003  0.823754  1
  Ti  Ti53  1  0.625003  0.124995  0.823756  1
  Ti  Ti54  1  0.125001  0.625005  0.823750  1
  Ti  Ti55  1  0.625001  0.624997  0.823750  1
  Ti  Ti56  1  0.124998  0.375003  0.910092  1
  Ti  Ti57  1  0.625001  0.375001  0.910092  1
  Ti  Ti58  1  0.125001  0.875001  0.910094  1
  Ti  Ti59  1  0.624998  0.874997  0.910093  1
  Ti  Ti60  1  0.374999  0.125000  0.910092  1
  Ti  Ti61  1  0.875002  0.124997  0.910091  1
  Ti  Ti62  1  0.375002  0.625003  0.910093  1
  Ti  Ti63  1  0.875000  0.624999  0.910094  1
  Ti  Ti64  1  0.393055  0.390640  0.658233  1
  Ti  Ti65  1  0.894084  0.372486  0.645981  1
  Ti  Ti66  1  0.388669  0.893056  0.644833  1
  Ti  Ti67  1  0.881227  0.884326  0.670176  1
  Ti  Ti68  1  0.105916  0.127514  0.645981  1
  Ti  Ti69  1  0.606945  0.109360  0.658233  1
  Ti  Ti70  1  0.118773  0.615674  0.670176  1
  Ti  Ti71  1  0.611331  0.606944  0.644833  1
  Ti  Ti72  1  0.153837  0.384692  0.568354  1
  Ti  Ti73  1  0.640654  0.335165  0.573470  1
  Ti  Ti74  1  0.119438  0.856444  0.585427  1
  Ti  Ti75  1  0.655958  0.861315  0.575876  1
  Ti  Ti76  1  0.359346  0.164835  0.573470  1
  Ti  Ti77  1  0.846163  0.115308  0.568354  1
  Ti  Ti78  1  0.344042  0.638685  0.575876  1
  Ti  Ti79  1  0.880562  0.643555  0.585427  1
  Ti  Ti80  1  0.413821  0.414156  0.487870  1
  Ti  Ti81  1  0.901020  0.370659  0.488272  1
  Ti  Ti82  1  0.319282  0.933946  0.494185  1
  Ti  Ti83  1  0.908466  0.880245  0.485623  1
  Ti  Ti84  1  0.098980  0.129341  0.488272  1
  Ti  Ti85  1  0.586179  0.085844  0.487870  1
  Ti  Ti86  1  0.091534  0.619755  0.485623  1
  Ti  Ti87  1  0.680718  0.566054  0.494185  1
  Ti  Ti88  1  0.124981  0.875012  0.737434  1
  Ti  Ti89  1  0.625022  0.874954  0.737434  1
  Ti  Ti90  1  0.374977  0.625045  0.737434  1
  Ti  Ti91  1  0.875019  0.624987  0.737434  1
  Ti  Ti92  1  0.124968  0.375009  0.737436  1
  Ti  Ti93  1  0.625032  0.374944  0.737451  1
  Ti  Ti94  1  0.374967  0.125055  0.737451  1
  Ti  Ti95  1  0.875031  0.124990  0.737436  1
  Al  Al96  1  0.500000  0.750000  0.469443  1
