# generated using pymatgen
data_Ti96Mo
_symmetry_space_group_name_H-M   'P 1'
_cell_length_a   9.51302000
_cell_length_b   9.35086000
_cell_length_c   18.54723000
_cell_angle_alpha   90.00000000
_cell_angle_beta   90.00000000
_cell_angle_gamma   90.00000000
_symmetry_Int_Tables_number   1
_chemical_formula_structural   Ti96Mo
_chemical_formula_sum   'Ti96 Mo1'
_cell_volume   1649.86732743
_cell_formula_units_Z   1
loop_
 _symmetry_equiv_pos_site_id
 _symmetry_equiv_pos_as_xyz
  1  'x, y, z'
loop_
 _atom_site_type_symbol
 _atom_site_label
 _atom_site_symmetry_multiplicity
 _atom_site_fract_x
 _atom_site_fract_y
 _atom_site_fract_z
 _atom_site_occupancy
  Ti  Ti0  1  0.137406  0.380310  0.406597  1
  Ti  Ti1  1  0.643748  0.358620  0.408148  1
  Ti  Ti2  1  0.168403  0.887767  0.402221  1
  Ti  Ti3  1  0.635362  0.941361  0.416211  1
  Ti  Ti4  1  0.159321  0.380721  0.236030  1
  Ti  Ti5  1  0.660041  0.375142  0.230870  1
  Ti  Ti6  1  0.163831  0.876190  0.237520  1
  Ti  Ti7  1  0.654503  0.885450  0.234220  1
  Ti  Ti8  1  0.166644  0.375000  0.077499  1
  Ti  Ti9  1  0.666703  0.375021  0.077562  1
  Ti  Ti10  1  0.166682  0.874991  0.077497  1
  Ti  Ti11  1  0.666666  0.874964  0.077645  1
  Ti  Ti12  1  0.392387  0.360595  0.319767  1
  Ti  Ti13  1  0.904092  0.360950  0.313565  1
  Ti  Ti14  1  0.416865  0.858007  0.324109  1
  Ti  Ti15  1  0.924701  0.909625  0.322110  1
  Ti  Ti16  1  0.416673  0.375028  0.155052  1
  Ti  Ti17  1  0.916724  0.374951  0.155119  1
  Ti  Ti18  1  0.416746  0.875051  0.155144  1
  Ti  Ti19  1  0.916565  0.874863  0.155167  1
  Ti  Ti20  1  0.416676  0.375011  -0.000107  1
  Ti  Ti21  1  0.916627  0.375009  -0.000074  1
  Ti  Ti22  1  0.416706  0.874992  -0.000075  1
  Ti  Ti23  1  0.916608  0.874978  -0.000053  1
  Ti  Ti24  1  0.107613  0.139406  0.319766  1
  Ti  Ti25  1  0.595908  0.139051  0.313564  1
  Ti  Ti26  1  0.083135  0.641994  0.324108  1
  Ti  Ti27  1  0.575299  0.590376  0.322109  1
  Ti  Ti28  1  0.083332  0.124993  0.155053  1
  Ti  Ti29  1  0.583273  0.125067  0.155118  1
  Ti  Ti30  1  0.083257  0.624966  0.155144  1
  Ti  Ti31  1  0.583432  0.625155  0.155165  1
  Ti  Ti32  1  0.083328  0.124996  -0.000106  1
  Ti  Ti33  1  0.583369  0.124996  -0.000072  1
  Ti  Ti34  1  0.083297  0.625012  -0.000076  1
  Ti  Ti35  1  0.583390  0.625027  -0.000054  1
  Ti  Ti36  1  0.362593  0.119690  0.406597  1
  Ti  Ti37  1  0.856251  0.141380  0.408148  1
  Ti  Ti38  1  0.331596  0.612234  0.402221  1
  Ti  Ti39  1  0.864637  0.558639  0.416211  1
  Ti  Ti40  1  0.340678  0.119283  0.236030  1
  Ti  Ti41  1  0.839958  0.124863  0.230870  1
  Ti  Ti42  1  0.336169  0.623814  0.237520  1
  Ti  Ti43  1  0.845495  0.614554  0.234220  1
  Ti  Ti44  1  0.333355  0.125015  0.077500  1
  Ti  Ti45  1  0.833296  0.124992  0.077562  1
  Ti  Ti46  1  0.333317  0.625025  0.077496  1
  Ti  Ti47  1  0.833334  0.625047  0.077643  1
  Ti  Ti48  1  0.374941  0.375029  0.823813  1
  Ti  Ti49  1  0.874972  0.375022  0.823837  1
  Ti  Ti50  1  0.375049  0.874950  0.823800  1
  Ti  Ti51  1  0.875034  0.874924  0.823713  1
  Ti  Ti52  1  0.125059  0.124962  0.823813  1
  Ti  Ti53  1  0.625029  0.124967  0.823839  1
  Ti  Ti54  1  0.124954  0.625037  0.823798  1
  Ti  Ti55  1  0.624971  0.625066  0.823713  1
  Ti  Ti56  1  0.124931  0.375041  0.910102  1
  Ti  Ti57  1  0.625042  0.375079  0.910120  1
  Ti  Ti58  1  0.124924  0.874960  0.910107  1
  Ti  Ti59  1  0.625083  0.874934  0.910138  1
  Ti  Ti60  1  0.375073  0.124950  0.910103  1
  Ti  Ti61  1  0.874961  0.124910  0.910121  1
  Ti  Ti62  1  0.375079  0.625028  0.910106  1
  Ti  Ti63  1  0.874920  0.625055  0.910136  1
  Ti  Ti64  1  0.395895  0.364546  0.648517  1
  Ti  Ti65  1  0.892459  0.364194  0.658367  1
  Ti  Ti66  1  0.384161  0.866277  0.664614  1
  Ti  Ti67  1  0.888463  0.866851  0.661517  1
  Ti  Ti68  1  0.104104  0.135450  0.648517  1
  Ti  Ti69  1  0.607540  0.135802  0.658367  1
  Ti  Ti70  1  0.115837  0.633718  0.664613  1
  Ti  Ti71  1  0.611535  0.633145  0.661517  1
  Ti  Ti72  1  0.150048  0.395129  0.574279  1
  Ti  Ti73  1  0.652395  0.399329  0.575758  1
  Ti  Ti74  1  0.141548  0.877563  0.575841  1
  Ti  Ti75  1  0.632048  0.881632  0.579291  1
  Ti  Ti76  1  0.349952  0.104869  0.574279  1
  Ti  Ti77  1  0.847605  0.100670  0.575758  1
  Ti  Ti78  1  0.358452  0.622436  0.575842  1
  Ti  Ti79  1  0.867952  0.618366  0.579291  1
  Ti  Ti80  1  0.391416  0.366671  0.493077  1
  Ti  Ti81  1  0.905717  0.349547  0.502817  1
  Ti  Ti82  1  0.397259  0.855051  0.487190  1
  Ti  Ti83  1  0.909655  0.874459  0.480513  1
  Ti  Ti84  1  0.108584  0.133328  0.493077  1
  Ti  Ti85  1  0.594283  0.150453  0.502817  1
  Ti  Ti86  1  0.102741  0.644948  0.487190  1
  Ti  Ti87  1  0.590345  0.625541  0.480513  1
  Ti  Ti88  1  0.125219  0.874998  0.737529  1
  Ti  Ti89  1  0.625096  0.874981  0.737506  1
  Ti  Ti90  1  0.374777  0.624987  0.737531  1
  Ti  Ti91  1  0.874900  0.625006  0.737506  1
  Ti  Ti92  1  0.125012  0.375056  0.737566  1
  Ti  Ti93  1  0.624761  0.375223  0.737589  1
  Ti  Ti94  1  0.374984  0.124927  0.737567  1
  Ti  Ti95  1  0.875233  0.124757  0.737591  1
  Mo  Mo96  1  0.750000  0.750000  0.373794  1
