# generated using pymatgen
data_ZrTi96
_symmetry_space_group_name_H-M   'P 1'
_cell_length_a   9.51302000
_cell_length_b   9.35086000
_cell_length_c   18.54723000
_cell_angle_alpha   90.00000000
_cell_angle_beta   90.00000000
_cell_angle_gamma   90.00000000
_symmetry_Int_Tables_number   1
_chemical_formula_structural   ZrTi96
_chemical_formula_sum   'Zr1 Ti96'
_cell_volume   1649.86732743
_cell_formula_units_Z   1
loop_
 _symmetry_equiv_pos_site_id
 _symmetry_equiv_pos_as_xyz
  1  'x, y, z'
loop_
 _atom_site_type_symbol
 _atom_site_label
 _atom_site_symmetry_multiplicity
 _atom_site_fract_x
 _atom_site_fract_y
 _atom_site_fract_z
 _atom_site_occupancy
  Ti  Ti0  1  0.146906  0.370477  0.403533  1
  Ti  Ti1  1  0.649350  0.352486  0.395996  1
  Ti  Ti2  1  0.150008  0.860520  0.394171  1
  Ti  Ti3  1  0.671419  0.883454  0.399949  1
  Ti  Ti4  1  0.160184  0.371832  0.236428  1
  Ti  Ti5  1  0.660702  0.373896  0.234028  1
  Ti  Ti6  1  0.162166  0.875097  0.234956  1
  Ti  Ti7  1  0.662338  0.872036  0.234472  1
  Ti  Ti8  1  0.166646  0.375023  0.077650  1
  Ti  Ti9  1  0.666676  0.374996  0.077645  1
  Ti  Ti10  1  0.166665  0.874989  0.077662  1
  Ti  Ti11  1  0.666662  0.874980  0.077641  1
  Ti  Ti12  1  0.407497  0.380861  0.313325  1
  Ti  Ti13  1  0.904574  0.376399  0.319815  1
  Ti  Ti14  1  0.407905  0.879109  0.317903  1
  Ti  Ti15  1  0.910684  0.880443  0.314054  1
  Ti  Ti16  1  0.416707  0.374980  0.155216  1
  Ti  Ti17  1  0.916644  0.374938  0.155211  1
  Ti  Ti18  1  0.416659  0.874988  0.155254  1
  Ti  Ti19  1  0.916706  0.874981  0.155186  1
  Ti  Ti20  1  0.416668  0.375051  -0.000034  1
  Ti  Ti21  1  0.916614  0.375029  -0.000028  1
  Ti  Ti22  1  0.416658  0.874974  -0.000078  1
  Ti  Ti23  1  0.916630  0.874978  -0.000068  1
  Ti  Ti24  1  0.095426  0.123602  0.319814  1
  Ti  Ti25  1  0.592503  0.119140  0.313324  1
  Ti  Ti26  1  0.089316  0.619558  0.314053  1
  Ti  Ti27  1  0.592095  0.620892  0.317902  1
  Ti  Ti28  1  0.083356  0.125073  0.155211  1
  Ti  Ti29  1  0.583293  0.125031  0.155216  1
  Ti  Ti30  1  0.083293  0.625035  0.155186  1
  Ti  Ti31  1  0.583342  0.625025  0.155254  1
  Ti  Ti32  1  0.083388  0.124979  -0.000027  1
  Ti  Ti33  1  0.583334  0.124961  -0.000033  1
  Ti  Ti34  1  0.083371  0.625040  -0.000067  1
  Ti  Ti35  1  0.583343  0.625044  -0.000077  1
  Ti  Ti36  1  0.350649  0.147514  0.395996  1
  Ti  Ti37  1  0.853093  0.129523  0.403532  1
  Ti  Ti38  1  0.328579  0.616546  0.399949  1
  Ti  Ti39  1  0.849991  0.639480  0.394171  1
  Ti  Ti40  1  0.339297  0.126107  0.234028  1
  Ti  Ti41  1  0.839815  0.128170  0.236428  1
  Ti  Ti42  1  0.337661  0.627967  0.234472  1
  Ti  Ti43  1  0.837833  0.624906  0.234956  1
  Ti  Ti44  1  0.333324  0.125015  0.077646  1
  Ti  Ti45  1  0.833354  0.124987  0.077651  1
  Ti  Ti46  1  0.333338  0.625034  0.077641  1
  Ti  Ti47  1  0.833335  0.625023  0.077662  1
  Ti  Ti48  1  0.374998  0.375024  0.823980  1
  Ti  Ti49  1  0.874957  0.374919  0.823951  1
  Ti  Ti50  1  0.375052  0.874954  0.823848  1
  Ti  Ti51  1  0.875017  0.874963  0.823855  1
  Ti  Ti52  1  0.125051  0.125068  0.823950  1
  Ti  Ti53  1  0.625009  0.124975  0.823981  1
  Ti  Ti54  1  0.124986  0.625037  0.823857  1
  Ti  Ti55  1  0.624955  0.625033  0.823851  1
  Ti  Ti56  1  0.124988  0.375035  0.910175  1
  Ti  Ti57  1  0.625020  0.374995  0.910187  1
  Ti  Ti58  1  0.125037  0.874962  0.910114  1
  Ti  Ti59  1  0.624999  0.874956  0.910121  1
  Ti  Ti60  1  0.374985  0.125002  0.910187  1
  Ti  Ti61  1  0.875020  0.124962  0.910175  1
  Ti  Ti62  1  0.375005  0.625044  0.910120  1
  Ti  Ti63  1  0.874970  0.625040  0.910114  1
  Ti  Ti64  1  0.386275  0.377597  0.663401  1
  Ti  Ti65  1  0.885666  0.380057  0.648821  1
  Ti  Ti66  1  0.379943  0.892398  0.657948  1
  Ti  Ti67  1  0.895423  0.879460  0.660726  1
  Ti  Ti68  1  0.114332  0.119940  0.648820  1
  Ti  Ti69  1  0.613722  0.122397  0.663401  1
  Ti  Ti70  1  0.104574  0.620533  0.660726  1
  Ti  Ti71  1  0.620055  0.607595  0.657949  1
  Ti  Ti72  1  0.139831  0.370462  0.569939  1
  Ti  Ti73  1  0.639571  0.349808  0.575262  1
  Ti  Ti74  1  0.141075  0.858701  0.572955  1
  Ti  Ti75  1  0.674297  0.902431  0.575462  1
  Ti  Ti76  1  0.360428  0.150190  0.575262  1
  Ti  Ti77  1  0.860168  0.129537  0.569939  1
  Ti  Ti78  1  0.325702  0.597567  0.575462  1
  Ti  Ti79  1  0.858924  0.641297  0.572955  1
  Ti  Ti80  1  0.403787  0.383749  0.486349  1
  Ti  Ti81  1  0.891703  0.376966  0.488235  1
  Ti  Ti82  1  0.346477  -0.063734  0.483180  1
  Ti  Ti83  1  0.914053  0.880084  0.482995  1
  Ti  Ti84  1  0.108297  0.123034  0.488235  1
  Ti  Ti85  1  0.596213  0.116251  0.486349  1
  Ti  Ti86  1  0.085946  0.619915  0.482995  1
  Ti  Ti87  1  0.653523  0.563734  0.483180  1
  Ti  Ti88  1  0.125639  0.875001  0.737725  1
  Ti  Ti89  1  0.625153  0.874876  0.737749  1
  Ti  Ti90  1  0.374833  0.625099  0.737749  1
  Ti  Ti91  1  0.874352  0.624978  0.737731  1
  Ti  Ti92  1  0.124802  0.374803  0.737785  1
  Ti  Ti93  1  0.625110  0.374670  0.737849  1
  Ti  Ti94  1  0.374876  0.125298  0.737845  1
  Ti  Ti95  1  0.875188  0.125170  0.737780  1
  Zr  Zr96  1  0.500000  0.749999  0.514060  1
