# generated using pymatgen
data_Ti
_symmetry_space_group_name_H-M   'P 1'
_cell_length_a   9.51302000
_cell_length_b   9.35086000
_cell_length_c   18.54723000
_cell_angle_alpha   90.00000000
_cell_angle_beta   90.00000000
_cell_angle_gamma   90.00000000
_symmetry_Int_Tables_number   1
_chemical_formula_structural   Ti
_chemical_formula_sum   Ti97
_cell_volume   1649.86732743
_cell_formula_units_Z   97
loop_
 _symmetry_equiv_pos_site_id
 _symmetry_equiv_pos_as_xyz
  1  'x, y, z'
loop_
 _atom_site_type_symbol
 _atom_site_label
 _atom_site_symmetry_multiplicity
 _atom_site_fract_x
 _atom_site_fract_y
 _atom_site_fract_z
 _atom_site_occupancy
  Ti  Ti0  1  0.146617  0.377489  0.404883  1
  Ti  Ti1  1  0.658815  0.346434  0.415420  1
  Ti  Ti2  1  0.146293  0.859147  0.414143  1
  Ti  Ti3  1  0.661536  0.877493  0.407145  1
  Ti  Ti4  1  0.149189  0.370526  0.240605  1
  Ti  Ti5  1  0.659393  0.361753  0.232542  1
  Ti  Ti6  1  0.163343  0.867220  0.233531  1
  Ti  Ti7  1  0.671894  0.893594  0.237878  1
  Ti  Ti8  1  0.166649  0.375063  0.077514  1
  Ti  Ti9  1  0.666717  0.374958  0.077509  1
  Ti  Ti10  1  0.166670  0.875042  0.077580  1
  Ti  Ti11  1  0.666617  0.874935  0.077599  1
  Ti  Ti12  1  0.406896  0.372522  0.324963  1
  Ti  Ti13  1  0.896414  0.375319  0.323868  1
  Ti  Ti14  1  0.356595  0.940275  0.331162  1
  Ti  Ti15  1  0.914140  0.873687  0.319645  1
  Ti  Ti16  1  0.416812  0.375098  0.155122  1
  Ti  Ti17  1  0.916744  0.374876  0.155104  1
  Ti  Ti18  1  0.416507  0.875052  0.155434  1
  Ti  Ti19  1  0.916814  0.875024  0.155103  1
  Ti  Ti20  1  0.416692  0.375032  -0.000075  1
  Ti  Ti21  1  0.916645  0.374989  -0.000104  1
  Ti  Ti22  1  0.416664  0.874982  -0.000001  1
  Ti  Ti23  1  0.916662  0.874989  -0.000088  1
  Ti  Ti24  1  0.103586  0.124681  0.323867  1
  Ti  Ti25  1  0.593104  0.127479  0.324962  1
  Ti  Ti26  1  0.085860  0.626314  0.319644  1
  Ti  Ti27  1  0.643405  0.559725  0.331161  1
  Ti  Ti28  1  0.083254  0.125139  0.155102  1
  Ti  Ti29  1  0.583187  0.124915  0.155123  1
  Ti  Ti30  1  0.083186  0.624990  0.155104  1
  Ti  Ti31  1  0.583494  0.624948  0.155435  1
  Ti  Ti32  1  0.083355  0.125014  -0.000105  1
  Ti  Ti33  1  0.583308  0.124974  -0.000075  1
  Ti  Ti34  1  0.083338  0.625013  -0.000088  1
  Ti  Ti35  1  0.583337  0.625014  -0.000001  1
  Ti  Ti36  1  0.341184  0.153566  0.415420  1
  Ti  Ti37  1  0.853382  0.122511  0.404883  1
  Ti  Ti38  1  0.338463  0.622507  0.407145  1
  Ti  Ti39  1  0.853706  0.640853  0.414143  1
  Ti  Ti40  1  0.340606  0.138248  0.232542  1
  Ti  Ti41  1  0.850810  0.129477  0.240605  1
  Ti  Ti42  1  0.328105  0.606408  0.237878  1
  Ti  Ti43  1  0.836657  0.632783  0.233531  1
  Ti  Ti44  1  0.333282  0.125052  0.077508  1
  Ti  Ti45  1  0.833350  0.124947  0.077514  1
  Ti  Ti46  1  0.333382  0.625072  0.077599  1
  Ti  Ti47  1  0.833329  0.624964  0.077580  1
  Ti  Ti48  1  0.375031  0.375045  0.823766  1
  Ti  Ti49  1  0.874949  0.375007  0.823745  1
  Ti  Ti50  1  0.375018  0.874988  0.823799  1
  Ti  Ti51  1  0.874950  0.874984  0.823791  1
  Ti  Ti52  1  0.125052  0.124987  0.823745  1
  Ti  Ti53  1  0.624972  0.124951  0.823766  1
  Ti  Ti54  1  0.125052  0.625009  0.823792  1
  Ti  Ti55  1  0.624983  0.625002  0.823799  1
  Ti  Ti56  1  0.124987  0.375010  0.910032  1
  Ti  Ti57  1  0.625006  0.375000  0.910051  1
  Ti  Ti58  1  0.125006  0.875003  0.910051  1
  Ti  Ti59  1  0.624977  0.874980  0.910077  1
  Ti  Ti60  1  0.374995  0.124995  0.910051  1
  Ti  Ti61  1  0.875014  0.124986  0.910032  1
  Ti  Ti62  1  0.375023  0.625010  0.910078  1
  Ti  Ti63  1  0.874995  0.624991  0.910051  1
  Ti  Ti64  1  0.396781  0.388624  0.652613  1
  Ti  Ti65  1  0.900908  0.381004  0.653267  1
  Ti  Ti66  1  0.397872  0.881168  0.652008  1
  Ti  Ti67  1  0.891990  0.883193  0.655948  1
  Ti  Ti68  1  0.099092  0.118994  0.653267  1
  Ti  Ti69  1  0.603219  0.111374  0.652614  1
  Ti  Ti70  1  0.108009  0.616805  0.655948  1
  Ti  Ti71  1  0.602128  0.618830  0.652008  1
  Ti  Ti72  1  0.153298  0.368772  0.572397  1
  Ti  Ti73  1  0.652160  0.362737  0.578845  1
  Ti  Ti74  1  0.148374  0.867690  0.577559  1
  Ti  Ti75  1  0.652025  0.862057  0.567518  1
  Ti  Ti76  1  0.347840  0.137263  0.578845  1
  Ti  Ti77  1  0.846702  0.131228  0.572397  1
  Ti  Ti78  1  0.347975  0.637943  0.567518  1
  Ti  Ti79  1  0.851626  0.632309  0.577559  1
  Ti  Ti80  1  0.403959  0.384941  0.494196  1
  Ti  Ti81  1  0.901851  0.376990  0.490800  1
  Ti  Ti82  1  0.394719  0.895482  0.493372  1
  Ti  Ti83  1  0.908335  0.883179  0.494732  1
  Ti  Ti84  1  0.098149  0.123010  0.490800  1
  Ti  Ti85  1  0.596041  0.115059  0.494196  1
  Ti  Ti86  1  0.091665  0.616821  0.494732  1
  Ti  Ti87  1  0.605281  0.604518  0.493372  1
  Ti  Ti88  1  0.124992  0.875081  0.737478  1
  Ti  Ti89  1  0.624934  0.874946  0.737457  1
  Ti  Ti90  1  0.375063  0.625044  0.737455  1
  Ti  Ti91  1  0.875006  0.624909  0.737480  1
  Ti  Ti92  1  0.124958  0.374969  0.737451  1
  Ti  Ti93  1  0.625016  0.374977  0.737444  1
  Ti  Ti94  1  0.374982  0.125017  0.737444  1
  Ti  Ti95  1  0.875041  0.125025  0.737450  1
  Ti  Ti96  1  0.500000  0.750000  0.318891  1
