# generated using pymatgen
data_Ti
_symmetry_space_group_name_H-M   'P 1'
_cell_length_a   9.51302000
_cell_length_b   9.35086000
_cell_length_c   18.54723000
_cell_angle_alpha   90.00000000
_cell_angle_beta   90.00000000
_cell_angle_gamma   90.00000000
_symmetry_Int_Tables_number   1
_chemical_formula_structural   Ti
_chemical_formula_sum   Ti97
_cell_volume   1649.86732743
_cell_formula_units_Z   97
loop_
 _symmetry_equiv_pos_site_id
 _symmetry_equiv_pos_as_xyz
  1  'x, y, z'
loop_
 _atom_site_type_symbol
 _atom_site_label
 _atom_site_symmetry_multiplicity
 _atom_site_fract_x
 _atom_site_fract_y
 _atom_site_fract_z
 _atom_site_occupancy
  Ti  Ti0  1  0.147194  0.376863  0.406032  1
  Ti  Ti1  1  0.652273  0.337992  0.412399  1
  Ti  Ti2  1  0.132041  0.857149  0.405165  1
  Ti  Ti3  1  0.682155  0.882494  0.399733  1
  Ti  Ti4  1  0.153179  0.368808  0.237573  1
  Ti  Ti5  1  0.659126  0.367283  0.233609  1
  Ti  Ti6  1  0.163502  0.869066  0.234176  1
  Ti  Ti7  1  0.665131  0.887649  0.235959  1
  Ti  Ti8  1  0.166677  0.375070  0.077410  1
  Ti  Ti9  1  0.666707  0.374986  0.077378  1
  Ti  Ti10  1  0.166826  0.875005  0.077501  1
  Ti  Ti11  1  0.666572  0.874964  0.077596  1
  Ti  Ti12  1  0.406075  0.375546  0.320793  1
  Ti  Ti13  1  0.896188  0.372534  0.323470  1
  Ti  Ti14  1  0.369622  0.928413  0.331195  1
  Ti  Ti15  1  0.915088  0.880143  0.313217  1
  Ti  Ti16  1  0.416723  0.375118  0.154918  1
  Ti  Ti17  1  0.916760  0.374785  0.154856  1
  Ti  Ti18  1  0.416640  0.874866  0.155404  1
  Ti  Ti19  1  0.916691  0.875173  0.154843  1
  Ti  Ti20  1  0.416664  0.375052  -0.000122  1
  Ti  Ti21  1  0.916634  0.374991  -0.000184  1
  Ti  Ti22  1  0.416681  0.874955  0.000014  1
  Ti  Ti23  1  0.916648  0.874987  -0.000148  1
  Ti  Ti24  1  0.103813  0.127469  0.323468  1
  Ti  Ti25  1  0.593924  0.124456  0.320792  1
  Ti  Ti26  1  0.084912  0.619860  0.313216  1
  Ti  Ti27  1  0.630378  0.571589  0.331194  1
  Ti  Ti28  1  0.083240  0.125250  0.154853  1
  Ti  Ti29  1  0.583277  0.124915  0.154920  1
  Ti  Ti30  1  0.083309  0.624862  0.154845  1
  Ti  Ti31  1  0.583362  0.625144  0.155402  1
  Ti  Ti32  1  0.083367  0.125019  -0.000184  1
  Ti  Ti33  1  0.583336  0.124963  -0.000120  1
  Ti  Ti34  1  0.083352  0.625022  -0.000147  1
  Ti  Ti35  1  0.583321  0.625044  0.000012  1
  Ti  Ti36  1  0.347725  0.162008  0.412399  1
  Ti  Ti37  1  0.852805  0.123137  0.406032  1
  Ti  Ti38  1  0.317844  0.617508  0.399733  1
  Ti  Ti39  1  0.867958  0.642852  0.405165  1
  Ti  Ti40  1  0.340874  0.132723  0.233608  1
  Ti  Ti41  1  0.846820  0.131199  0.237573  1
  Ti  Ti42  1  0.334868  0.612357  0.235960  1
  Ti  Ti43  1  0.836497  0.630942  0.234176  1
  Ti  Ti44  1  0.333293  0.125040  0.077379  1
  Ti  Ti45  1  0.833322  0.124955  0.077411  1
  Ti  Ti46  1  0.333427  0.625055  0.077595  1
  Ti  Ti47  1  0.833173  0.625018  0.077500  1
  Ti  Ti48  1  0.375045  0.375117  0.823833  1
  Ti  Ti49  1  0.874926  0.374994  0.823869  1
  Ti  Ti50  1  0.375088  0.874914  0.823748  1
  Ti  Ti51  1  0.874929  0.874943  0.823795  1
  Ti  Ti52  1  0.125073  0.124983  0.823870  1
  Ti  Ti53  1  0.624958  0.124869  0.823835  1
  Ti  Ti54  1  0.125074  0.625039  0.823796  1
  Ti  Ti55  1  0.624917  0.625069  0.823747  1
  Ti  Ti56  1  0.125085  0.375122  0.910134  1
  Ti  Ti57  1  0.624967  0.375130  0.910182  1
  Ti  Ti58  1  0.125147  0.874911  0.910187  1
  Ti  Ti59  1  0.624940  0.874882  0.910266  1
  Ti  Ti60  1  0.375039  0.124851  0.910185  1
  Ti  Ti61  1  0.874920  0.124865  0.910135  1
  Ti  Ti62  1  0.375063  0.625088  0.910265  1
  Ti  Ti63  1  0.874857  0.625065  0.910186  1
  Ti  Ti64  1  0.395441  0.385122  0.656554  1
  Ti  Ti65  1  0.895769  0.376099  0.650889  1
  Ti  Ti66  1  0.397193  0.888254  0.646990  1
  Ti  Ti67  1  0.888298  0.884074  0.662408  1
  Ti  Ti68  1  0.104230  0.123896  0.650889  1
  Ti  Ti69  1  0.604557  0.114872  0.656554  1
  Ti  Ti70  1  0.111700  0.615920  0.662408  1
  Ti  Ti71  1  0.602807  0.611742  0.646991  1
  Ti  Ti72  1  0.152474  0.371780  0.571101  1
  Ti  Ti73  1  0.645074  0.349876  0.573946  1
  Ti  Ti74  1  0.136648  0.864254  0.582094  1
  Ti  Ti75  1  0.655643  0.866237  0.575167  1
  Ti  Ti76  1  0.354926  0.150122  0.573946  1
  Ti  Ti77  1  0.847526  0.128218  0.571101  1
  Ti  Ti78  1  0.344357  0.633761  0.575167  1
  Ti  Ti79  1  0.863352  0.635744  0.582094  1
  Ti  Ti80  1  0.408077  0.402664  0.490673  1
  Ti  Ti81  1  0.902289  0.375171  0.489433  1
  Ti  Ti82  1  0.358001  0.908643  0.490950  1
  Ti  Ti83  1  0.906823  0.882445  0.494113  1
  Ti  Ti84  1  0.097711  0.124828  0.489433  1
  Ti  Ti85  1  0.591923  0.097335  0.490673  1
  Ti  Ti86  1  0.093177  0.617555  0.494113  1
  Ti  Ti87  1  0.641999  0.591356  0.490950  1
  Ti  Ti88  1  0.125059  0.875017  0.737686  1
  Ti  Ti89  1  0.624961  0.874914  0.737514  1
  Ti  Ti90  1  0.375036  0.625069  0.737511  1
  Ti  Ti91  1  0.874933  0.624956  0.737687  1
  Ti  Ti92  1  0.124949  0.374972  0.737677  1
  Ti  Ti93  1  0.624977  0.374953  0.737689  1
  Ti  Ti94  1  0.375013  0.125021  0.737689  1
  Ti  Ti95  1  0.875045  0.125005  0.737678  1
  Ti  Ti96  1  0.500000  0.750000  0.386505  1
