# generated using pymatgen
data_Ti96Mo
_symmetry_space_group_name_H-M   'P 1'
_cell_length_a   9.51302000
_cell_length_b   9.35086000
_cell_length_c   18.54723000
_cell_angle_alpha   90.00000000
_cell_angle_beta   90.00000000
_cell_angle_gamma   90.00000000
_symmetry_Int_Tables_number   1
_chemical_formula_structural   Ti96Mo
_chemical_formula_sum   'Ti96 Mo1'
_cell_volume   1649.86732743
_cell_formula_units_Z   1
loop_
 _symmetry_equiv_pos_site_id
 _symmetry_equiv_pos_as_xyz
  1  'x, y, z'
loop_
 _atom_site_type_symbol
 _atom_site_label
 _atom_site_symmetry_multiplicity
 _atom_site_fract_x
 _atom_site_fract_y
 _atom_site_fract_z
 _atom_site_occupancy
  Ti  Ti0  1  0.137455  0.364182  0.403200  1
  Ti  Ti1  1  0.657799  0.354599  0.395615  1
  Ti  Ti2  1  0.161624  0.859638  0.401458  1
  Ti  Ti3  1  0.669957  0.897055  0.407751  1
  Ti  Ti4  1  0.159774  0.375401  0.237347  1
  Ti  Ti5  1  0.662312  0.370053  0.230951  1
  Ti  Ti6  1  0.159529  0.872469  0.234458  1
  Ti  Ti7  1  0.658831  0.866134  0.240704  1
  Ti  Ti8  1  0.166645  0.375038  0.077571  1
  Ti  Ti9  1  0.666688  0.375006  0.077590  1
  Ti  Ti10  1  0.166699  0.874945  0.077645  1
  Ti  Ti11  1  0.666675  0.874971  0.077664  1
  Ti  Ti12  1  0.405745  0.376410  0.314612  1
  Ti  Ti13  1  0.905403  0.379949  0.317058  1
  Ti  Ti14  1  0.401316  0.892855  0.315664  1
  Ti  Ti15  1  0.910640  0.877973  0.319687  1
  Ti  Ti16  1  0.416689  0.375001  0.155148  1
  Ti  Ti17  1  0.916614  0.374974  0.155128  1
  Ti  Ti18  1  0.416618  0.874916  0.155312  1
  Ti  Ti19  1  0.916771  0.874913  0.155173  1
  Ti  Ti20  1  0.416702  0.375089  0.000076  1
  Ti  Ti21  1  0.916587  0.375060  0.000022  1
  Ti  Ti22  1  0.416694  0.874913  0.000159  1
  Ti  Ti23  1  0.916615  0.874948  0.000064  1
  Ti  Ti24  1  0.094597  0.120052  0.317057  1
  Ti  Ti25  1  0.594255  0.123592  0.314611  1
  Ti  Ti26  1  0.089359  0.622029  0.319686  1
  Ti  Ti27  1  0.598684  0.607147  0.315663  1
  Ti  Ti28  1  0.083387  0.125050  0.155128  1
  Ti  Ti29  1  0.583311  0.125024  0.155149  1
  Ti  Ti30  1  0.083229  0.625109  0.155171  1
  Ti  Ti31  1  0.583383  0.625101  0.155310  1
  Ti  Ti32  1  0.083414  0.124945  0.000025  1
  Ti  Ti33  1  0.583299  0.124915  0.000079  1
  Ti  Ti34  1  0.083386  0.625059  0.000064  1
  Ti  Ti35  1  0.583307  0.625083  0.000158  1
  Ti  Ti36  1  0.342200  0.145401  0.395615  1
  Ti  Ti37  1  0.862544  0.135818  0.403200  1
  Ti  Ti38  1  0.330042  0.602946  0.407751  1
  Ti  Ti39  1  0.838375  0.640363  0.401458  1
  Ti  Ti40  1  0.337687  0.129952  0.230951  1
  Ti  Ti41  1  0.840225  0.124604  0.237347  1
  Ti  Ti42  1  0.341168  0.633870  0.240704  1
  Ti  Ti43  1  0.840470  0.627536  0.234458  1
  Ti  Ti44  1  0.333311  0.125010  0.077591  1
  Ti  Ti45  1  0.833355  0.124980  0.077572  1
  Ti  Ti46  1  0.333325  0.625044  0.077664  1
  Ti  Ti47  1  0.833300  0.625071  0.077644  1
  Ti  Ti48  1  0.375018  0.375057  0.824008  1
  Ti  Ti49  1  0.874956  0.374942  0.823989  1
  Ti  Ti50  1  0.375025  0.874930  0.823881  1
  Ti  Ti51  1  0.875025  0.874976  0.823953  1
  Ti  Ti52  1  0.125047  0.125040  0.823990  1
  Ti  Ti53  1  0.624989  0.124943  0.824011  1
  Ti  Ti54  1  0.124981  0.625022  0.823953  1
  Ti  Ti55  1  0.624983  0.625052  0.823880  1
  Ti  Ti56  1  0.124985  0.375035  0.910214  1
  Ti  Ti57  1  0.625000  0.375011  0.910212  1
  Ti  Ti58  1  0.125055  0.874952  0.910194  1
  Ti  Ti59  1  0.624953  0.874935  0.910190  1
  Ti  Ti60  1  0.375006  0.124983  0.910215  1
  Ti  Ti61  1  0.875021  0.124960  0.910215  1
  Ti  Ti62  1  0.375051  0.625055  0.910188  1
  Ti  Ti63  1  0.874951  0.625042  0.910193  1
  Ti  Ti64  1  0.383441  0.382130  0.664246  1
  Ti  Ti65  1  0.889861  0.389831  0.649412  1
  Ti  Ti66  1  0.383870  0.880663  0.659196  1
  Ti  Ti67  1  0.899068  0.883131  0.653609  1
  Ti  Ti68  1  0.110138  0.110165  0.649412  1
  Ti  Ti69  1  0.616556  0.117862  0.664246  1
  Ti  Ti70  1  0.100929  0.616862  0.653610  1
  Ti  Ti71  1  0.616129  0.619331  0.659196  1
  Ti  Ti72  1  0.139061  0.362064  0.570085  1
  Ti  Ti73  1  0.640288  0.359319  0.584467  1
  Ti  Ti74  1  0.155237  0.852497  0.568962  1
  Ti  Ti75  1  0.663903  0.899443  0.568492  1
  Ti  Ti76  1  0.359711  0.140679  0.584467  1
  Ti  Ti77  1  0.860938  0.137934  0.570085  1
  Ti  Ti78  1  0.336096  0.600555  0.568492  1
  Ti  Ti79  1  0.844762  0.647501  0.568962  1
  Ti  Ti80  1  0.397964  0.359469  0.488474  1
  Ti  Ti81  1  0.884421  0.384909  0.491005  1
  Ti  Ti82  1  0.380252  0.941444  0.485957  1
  Ti  Ti83  1  0.918612  0.886049  0.485068  1
  Ti  Ti84  1  0.115579  0.115090  0.491005  1
  Ti  Ti85  1  0.602035  0.140531  0.488474  1
  Ti  Ti86  1  0.081388  0.613951  0.485068  1
  Ti  Ti87  1  0.619748  0.558555  0.485957  1
  Ti  Ti88  1  0.125376  0.874947  0.737745  1
  Ti  Ti89  1  0.624962  0.874674  0.737723  1
  Ti  Ti90  1  0.375028  0.625303  0.737717  1
  Ti  Ti91  1  0.874616  0.625031  0.737748  1
  Ti  Ti92  1  0.124684  0.375006  0.737835  1
  Ti  Ti93  1  0.625248  0.374869  0.737828  1
  Ti  Ti94  1  0.374741  0.125104  0.737830  1
  Ti  Ti95  1  0.875305  0.124966  0.737832  1
  Mo  Mo96  1  0.500000  0.750000  0.486982  1
