# generated using pymatgen
data_Ti96Al
_symmetry_space_group_name_H-M   'P 1'
_cell_length_a   9.51302000
_cell_length_b   9.35086000
_cell_length_c   18.54723000
_cell_angle_alpha   90.00000000
_cell_angle_beta   90.00000000
_cell_angle_gamma   90.00000000
_symmetry_Int_Tables_number   1
_chemical_formula_structural   Ti96Al
_chemical_formula_sum   'Ti96 Al1'
_cell_volume   1649.86732743
_cell_formula_units_Z   1
loop_
 _symmetry_equiv_pos_site_id
 _symmetry_equiv_pos_as_xyz
  1  'x, y, z'
loop_
 _atom_site_type_symbol
 _atom_site_label
 _atom_site_symmetry_multiplicity
 _atom_site_fract_x
 _atom_site_fract_y
 _atom_site_fract_z
 _atom_site_occupancy
  Ti  Ti0  1  0.140943  0.380935  0.405097  1
  Ti  Ti1  1  0.652844  0.365259  0.400849  1
  Ti  Ti2  1  0.167171  0.882596  0.399937  1
  Ti  Ti3  1  0.616818  0.940259  0.409216  1
  Ti  Ti4  1  0.161441  0.374980  0.234306  1
  Ti  Ti5  1  0.658591  0.375066  0.232292  1
  Ti  Ti6  1  0.162998  0.876464  0.236246  1
  Ti  Ti7  1  0.662532  0.877666  0.235653  1
  Ti  Ti8  1  0.166640  0.374990  0.077506  1
  Ti  Ti9  1  0.666692  0.375033  0.077537  1
  Ti  Ti10  1  0.166685  0.874978  0.077560  1
  Ti  Ti11  1  0.666676  0.874932  0.077716  1
  Ti  Ti12  1  0.394018  0.366857  0.322025  1
  Ti  Ti13  1  0.908479  0.364722  0.311528  1
  Ti  Ti14  1  0.414455  0.868693  0.316187  1
  Ti  Ti15  1  0.919998  0.893271  0.320755  1
  Ti  Ti16  1  0.416554  0.375058  0.155076  1
  Ti  Ti17  1  0.916781  0.374876  0.155080  1
  Ti  Ti18  1  0.416674  0.875010  0.155250  1
  Ti  Ti19  1  0.916631  0.874787  0.155262  1
  Ti  Ti20  1  0.416661  0.375025  -0.000064  1
  Ti  Ti21  1  0.916636  0.375018  -0.000045  1
  Ti  Ti22  1  0.416714  0.874978  -0.000003  1
  Ti  Ti23  1  0.916618  0.874954  0.000010  1
  Ti  Ti24  1  0.105982  0.133144  0.322023  1
  Ti  Ti25  1  0.591521  0.135279  0.311526  1
  Ti  Ti26  1  0.085545  0.631308  0.316186  1
  Ti  Ti27  1  0.580002  0.606730  0.320754  1
  Ti  Ti28  1  0.083451  0.124962  0.155076  1
  Ti  Ti29  1  0.583215  0.125144  0.155079  1
  Ti  Ti30  1  0.083328  0.625003  0.155250  1
  Ti  Ti31  1  0.583367  0.625226  0.155260  1
  Ti  Ti32  1  0.083343  0.124985  -0.000063  1
  Ti  Ti33  1  0.583361  0.124991  -0.000043  1
  Ti  Ti34  1  0.083290  0.625026  -0.000003  1
  Ti  Ti35  1  0.583381  0.625051  0.000009  1
  Ti  Ti36  1  0.359056  0.119065  0.405097  1
  Ti  Ti37  1  0.847155  0.134741  0.400849  1
  Ti  Ti38  1  0.332828  0.617404  0.399937  1
  Ti  Ti39  1  0.883181  0.559741  0.409216  1
  Ti  Ti40  1  0.338558  0.125024  0.234306  1
  Ti  Ti41  1  0.841408  0.124937  0.232292  1
  Ti  Ti42  1  0.337001  0.623539  0.236247  1
  Ti  Ti43  1  0.837466  0.622337  0.235653  1
  Ti  Ti44  1  0.333359  0.125026  0.077506  1
  Ti  Ti45  1  0.833308  0.124981  0.077538  1
  Ti  Ti46  1  0.333314  0.625037  0.077560  1
  Ti  Ti47  1  0.833324  0.625078  0.077715  1
  Ti  Ti48  1  0.374984  0.375017  0.823954  1
  Ti  Ti49  1  0.875000  0.374973  0.823897  1
  Ti  Ti50  1  0.375072  0.874989  0.823915  1
  Ti  Ti51  1  0.874954  0.874937  0.823831  1
  Ti  Ti52  1  0.125021  0.124973  0.823954  1
  Ti  Ti53  1  0.625007  0.125021  0.823898  1
  Ti  Ti54  1  0.124933  0.624999  0.823915  1
  Ti  Ti55  1  0.625052  0.625057  0.823832  1
  Ti  Ti56  1  0.124914  0.375047  0.910126  1
  Ti  Ti57  1  0.625059  0.375078  0.910101  1
  Ti  Ti58  1  0.124886  0.874936  0.910119  1
  Ti  Ti59  1  0.625067  0.874933  0.910085  1
  Ti  Ti60  1  0.375092  0.124951  0.910127  1
  Ti  Ti61  1  0.874946  0.124920  0.910102  1
  Ti  Ti62  1  0.375119  0.625056  0.910118  1
  Ti  Ti63  1  0.874937  0.625065  0.910084  1
  Ti  Ti64  1  0.392936  0.363591  0.646968  1
  Ti  Ti65  1  0.889062  0.362275  0.662481  1
  Ti  Ti66  1  0.382646  0.862937  0.664056  1
  Ti  Ti67  1  0.888138  0.864674  0.654261  1
  Ti  Ti68  1  0.107062  0.136405  0.646968  1
  Ti  Ti69  1  0.610936  0.137720  0.662480  1
  Ti  Ti70  1  0.117351  0.637056  0.664056  1
  Ti  Ti71  1  0.611861  0.635320  0.654261  1
  Ti  Ti72  1  0.142160  0.393198  0.573941  1
  Ti  Ti73  1  0.652959  0.389642  0.576471  1
  Ti  Ti74  1  0.146286  0.882913  0.576216  1
  Ti  Ti75  1  0.626570  0.896084  0.581108  1
  Ti  Ti76  1  0.357839  0.106800  0.573941  1
  Ti  Ti77  1  0.847040  0.110356  0.576471  1
  Ti  Ti78  1  0.353714  0.617085  0.576216  1
  Ti  Ti79  1  0.873430  0.603914  0.581108  1
  Ti  Ti80  1  0.384623  0.367236  0.488905  1
  Ti  Ti81  1  0.903787  0.344368  0.497418  1
  Ti  Ti82  1  0.397707  0.851740  0.490769  1
  Ti  Ti83  1  0.922155  0.901664  0.481519  1
  Ti  Ti84  1  0.115377  0.132764  0.488905  1
  Ti  Ti85  1  0.596213  0.155632  0.497418  1
  Ti  Ti86  1  0.102292  0.648259  0.490769  1
  Ti  Ti87  1  0.577845  0.598335  0.481519  1
  Ti  Ti88  1  0.125135  0.874921  0.737746  1
  Ti  Ti89  1  0.624988  0.875156  0.737578  1
  Ti  Ti90  1  0.374853  0.625052  0.737746  1
  Ti  Ti91  1  0.875007  0.624828  0.737581  1
  Ti  Ti92  1  0.125036  0.374916  0.737742  1
  Ti  Ti93  1  0.625008  0.374972  0.737740  1
  Ti  Ti94  1  0.374954  0.125061  0.737741  1
  Ti  Ti95  1  0.874982  0.125002  0.737740  1
  Al  Al96  1  0.750000  0.750000  0.424010  1
