# generated using pymatgen
data_Ti96Sn
_symmetry_space_group_name_H-M   'P 1'
_cell_length_a   9.51302000
_cell_length_b   9.35086000
_cell_length_c   18.54723000
_cell_angle_alpha   90.00000000
_cell_angle_beta   90.00000000
_cell_angle_gamma   90.00000000
_symmetry_Int_Tables_number   1
_chemical_formula_structural   Ti96Sn
_chemical_formula_sum   'Ti96 Sn1'
_cell_volume   1649.86732743
_cell_formula_units_Z   1
loop_
 _symmetry_equiv_pos_site_id
 _symmetry_equiv_pos_as_xyz
  1  'x, y, z'
loop_
 _atom_site_type_symbol
 _atom_site_label
 _atom_site_symmetry_multiplicity
 _atom_site_fract_x
 _atom_site_fract_y
 _atom_site_fract_z
 _atom_site_occupancy
  Ti  Ti0  1  0.133916  0.388631  0.401009  1
  Ti  Ti1  1  0.648829  0.364947  0.394133  1
  Ti  Ti2  1  0.168548  0.887636  0.399303  1
  Ti  Ti3  1  0.643560  0.927515  0.397721  1
  Ti  Ti4  1  0.164936  0.378799  0.234245  1
  Ti  Ti5  1  0.659321  0.384231  0.235101  1
  Ti  Ti6  1  0.156802  0.876058  0.235355  1
  Ti  Ti7  1  0.659586  0.875149  0.235120  1
  Ti  Ti8  1  0.166664  0.374991  0.077674  1
  Ti  Ti9  1  0.666663  0.374982  0.077681  1
  Ti  Ti10  1  0.166673  0.875007  0.077672  1
  Ti  Ti11  1  0.666675  0.875007  0.077679  1
  Ti  Ti12  1  0.400845  0.373775  0.319516  1
  Ti  Ti13  1  0.913436  0.363515  0.306737  1
  Ti  Ti14  1  0.409121  0.869458  0.315687  1
  Ti  Ti15  1  0.901552  0.862217  0.328586  1
  Ti  Ti16  1  0.416662  0.374986  0.155321  1
  Ti  Ti17  1  0.916661  0.374989  0.155321  1
  Ti  Ti18  1  0.416694  0.875022  0.155320  1
  Ti  Ti19  1  0.916710  0.875013  0.155338  1
  Ti  Ti20  1  0.416685  0.375015  -0.000014  1
  Ti  Ti21  1  0.916650  0.375013  -0.000014  1
  Ti  Ti22  1  0.416689  0.874998  -0.000025  1
  Ti  Ti23  1  0.916650  0.874995  -0.000021  1
  Ti  Ti24  1  0.099155  0.126225  0.319515  1
  Ti  Ti25  1  0.586564  0.136485  0.306736  1
  Ti  Ti26  1  0.090879  0.630542  0.315686  1
  Ti  Ti27  1  0.598448  0.637783  0.328585  1
  Ti  Ti28  1  0.083338  0.125017  0.155321  1
  Ti  Ti29  1  0.583338  0.125015  0.155321  1
  Ti  Ti30  1  0.083306  0.624982  0.155320  1
  Ti  Ti31  1  0.583290  0.624991  0.155338  1
  Ti  Ti32  1  0.083316  0.124991  -0.000014  1
  Ti  Ti33  1  0.583350  0.124991  -0.000014  1
  Ti  Ti34  1  0.083311  0.625008  -0.000025  1
  Ti  Ti35  1  0.583351  0.625011  -0.000021  1
  Ti  Ti36  1  0.366083  0.111369  0.401009  1
  Ti  Ti37  1  0.851170  0.135053  0.394133  1
  Ti  Ti38  1  0.331451  0.612364  0.399303  1
  Ti  Ti39  1  0.856439  0.572485  0.397721  1
  Ti  Ti40  1  0.335063  0.121202  0.234245  1
  Ti  Ti41  1  0.840678  0.115770  0.235101  1
  Ti  Ti42  1  0.343197  0.623943  0.235355  1
  Ti  Ti43  1  0.840413  0.624851  0.235120  1
  Ti  Ti44  1  0.333335  0.125013  0.077674  1
  Ti  Ti45  1  0.833336  0.125022  0.077681  1
  Ti  Ti46  1  0.333326  0.624998  0.077672  1
  Ti  Ti47  1  0.833324  0.624996  0.077679  1
  Ti  Ti48  1  0.374992  0.375008  0.823839  1
  Ti  Ti49  1  0.875014  0.374961  0.823793  1
  Ti  Ti50  1  0.375025  0.875019  0.823828  1
  Ti  Ti51  1  0.874946  0.874963  0.823781  1
  Ti  Ti52  1  0.125010  0.124991  0.823838  1
  Ti  Ti53  1  0.624989  0.125037  0.823793  1
  Ti  Ti54  1  0.124977  0.624980  0.823827  1
  Ti  Ti55  1  0.625058  0.625036  0.823780  1
  Ti  Ti56  1  0.124992  0.374985  0.910132  1
  Ti  Ti57  1  0.625023  0.375005  0.910116  1
  Ti  Ti58  1  0.124993  0.874996  0.910126  1
  Ti  Ti59  1  0.625016  0.874996  0.910107  1
  Ti  Ti60  1  0.375012  0.125016  0.910132  1
  Ti  Ti61  1  0.874979  0.124995  0.910115  1
  Ti  Ti62  1  0.375010  0.625003  0.910126  1
  Ti  Ti63  1  0.874987  0.625005  0.910105  1
  Ti  Ti64  1  0.390794  0.372859  0.644774  1
  Ti  Ti65  1  0.884286  0.358663  0.667208  1
  Ti  Ti66  1  0.379129  0.861905  0.667198  1
  Ti  Ti67  1  0.892295  0.865365  0.647299  1
  Ti  Ti68  1  0.109205  0.127140  0.644774  1
  Ti  Ti69  1  0.615713  0.141335  0.667208  1
  Ti  Ti70  1  0.120870  0.638093  0.667198  1
  Ti  Ti71  1  0.607705  0.634633  0.647299  1
  Ti  Ti72  1  0.134017  0.392846  0.576922  1
  Ti  Ti73  1  0.653283  0.381813  0.576765  1
  Ti  Ti74  1  0.159635  0.877049  0.570509  1
  Ti  Ti75  1  0.604686  0.922581  0.582817  1
  Ti  Ti76  1  0.365983  0.107154  0.576922  1
  Ti  Ti77  1  0.846716  0.118186  0.576766  1
  Ti  Ti78  1  0.340365  0.622950  0.570509  1
  Ti  Ti79  1  0.895313  0.577418  0.582817  1
  Ti  Ti80  1  0.368842  0.359308  0.488500  1
  Ti  Ti81  1  0.902928  0.343277  0.491352  1
  Ti  Ti82  1  0.411178  0.852871  0.481777  1
  Ti  Ti83  1  0.942985  0.930541  0.480788  1
  Ti  Ti84  1  0.131158  0.140692  0.488500  1
  Ti  Ti85  1  0.597072  0.156723  0.491352  1
  Ti  Ti86  1  0.088822  0.647129  0.481777  1
  Ti  Ti87  1  0.557015  0.569459  0.480788  1
  Ti  Ti88  1  0.125062  0.875028  0.737601  1
  Ti  Ti89  1  0.624988  0.875044  0.737585  1
  Ti  Ti90  1  0.374933  0.624961  0.737602  1
  Ti  Ti91  1  0.875007  0.624946  0.737586  1
  Ti  Ti92  1  0.125098  0.374873  0.737591  1
  Ti  Ti93  1  0.624926  0.375280  0.737587  1
  Ti  Ti94  1  0.374897  0.125118  0.737590  1
  Ti  Ti95  1  0.875069  0.124708  0.737589  1
  Sn  Sn96  1  0.750000  0.750000  0.501324  1
