# generated using pymatgen
data_Ti
_symmetry_space_group_name_H-M   'P 1'
_cell_length_a   9.51302000
_cell_length_b   9.35086000
_cell_length_c   18.54723000
_cell_angle_alpha   90.00000000
_cell_angle_beta   90.00000000
_cell_angle_gamma   90.00000000
_symmetry_Int_Tables_number   1
_chemical_formula_structural   Ti
_chemical_formula_sum   Ti97
_cell_volume   1649.86732743
_cell_formula_units_Z   97
loop_
 _symmetry_equiv_pos_site_id
 _symmetry_equiv_pos_as_xyz
  1  'x, y, z'
loop_
 _atom_site_type_symbol
 _atom_site_label
 _atom_site_symmetry_multiplicity
 _atom_site_fract_x
 _atom_site_fract_y
 _atom_site_fract_z
 _atom_site_occupancy
  Ti  Ti0  1  0.147346  0.370716  0.401698  1
  Ti  Ti1  1  0.660970  0.359876  0.392451  1
  Ti  Ti2  1  0.156283  0.867636  0.399948  1
  Ti  Ti3  1  0.661958  0.875955  0.409644  1
  Ti  Ti4  1  0.161272  0.373499  0.237056  1
  Ti  Ti5  1  0.660193  0.370918  0.233092  1
  Ti  Ti6  1  0.160274  0.874307  0.234976  1
  Ti  Ti7  1  0.660842  0.869614  0.237932  1
  Ti  Ti8  1  0.166677  0.375061  0.077585  1
  Ti  Ti9  1  0.666656  0.374997  0.077562  1
  Ti  Ti10  1  0.166681  0.875023  0.077594  1
  Ti  Ti11  1  0.666650  0.874949  0.077643  1
  Ti  Ti12  1  0.407807  0.381801  0.316776  1
  Ti  Ti13  1  0.910146  0.378305  0.317323  1
  Ti  Ti14  1  0.401821  0.882239  0.315300  1
  Ti  Ti15  1  0.907247  0.875885  0.318728  1
  Ti  Ti16  1  0.416671  0.375178  0.155191  1
  Ti  Ti17  1  0.916673  0.374955  0.155178  1
  Ti  Ti18  1  0.416656  0.875045  0.155246  1
  Ti  Ti19  1  0.916656  0.874987  0.155191  1
  Ti  Ti20  1  0.416684  0.375092  -0.000088  1
  Ti  Ti21  1  0.916610  0.375041  -0.000068  1
  Ti  Ti22  1  0.416668  0.874958  -0.000113  1
  Ti  Ti23  1  0.916606  0.874974  -0.000080  1
  Ti  Ti24  1  0.089854  0.121696  0.317322  1
  Ti  Ti25  1  0.592193  0.118200  0.316775  1
  Ti  Ti26  1  0.092753  0.624116  0.318727  1
  Ti  Ti27  1  0.598179  0.617762  0.315299  1
  Ti  Ti28  1  0.083327  0.125059  0.155179  1
  Ti  Ti29  1  0.583328  0.124835  0.155193  1
  Ti  Ti30  1  0.083345  0.625028  0.155190  1
  Ti  Ti31  1  0.583345  0.624967  0.155246  1
  Ti  Ti32  1  0.083391  0.124968  -0.000066  1
  Ti  Ti33  1  0.583318  0.124922  -0.000086  1
  Ti  Ti34  1  0.083396  0.625041  -0.000080  1
  Ti  Ti35  1  0.583333  0.625059  -0.000114  1
  Ti  Ti36  1  0.339029  0.140125  0.392451  1
  Ti  Ti37  1  0.852653  0.129285  0.401698  1
  Ti  Ti38  1  0.338041  0.624045  0.409644  1
  Ti  Ti39  1  0.843716  0.632364  0.399948  1
  Ti  Ti40  1  0.339806  0.129085  0.233092  1
  Ti  Ti41  1  0.838727  0.126504  0.237057  1
  Ti  Ti42  1  0.339157  0.630388  0.237932  1
  Ti  Ti43  1  0.839726  0.625696  0.234976  1
  Ti  Ti44  1  0.333343  0.125017  0.077563  1
  Ti  Ti45  1  0.833323  0.124952  0.077586  1
  Ti  Ti46  1  0.333350  0.625063  0.077643  1
  Ti  Ti47  1  0.833319  0.624991  0.077594  1
  Ti  Ti48  1  0.375096  0.375051  0.823834  1
  Ti  Ti49  1  0.874930  0.374936  0.823912  1
  Ti  Ti50  1  0.375076  0.874980  0.823721  1
  Ti  Ti51  1  0.874908  0.874959  0.823902  1
  Ti  Ti52  1  0.125071  0.125042  0.823913  1
  Ti  Ti53  1  0.624914  0.124951  0.823837  1
  Ti  Ti54  1  0.125095  0.625033  0.823903  1
  Ti  Ti55  1  0.624931  0.625011  0.823723  1
  Ti  Ti56  1  0.125043  0.375029  0.910145  1
  Ti  Ti57  1  0.624990  0.375003  0.910096  1
  Ti  Ti58  1  0.125082  0.874978  0.910108  1
  Ti  Ti59  1  0.624949  0.874946  0.910074  1
  Ti  Ti60  1  0.375016  0.124993  0.910096  1
  Ti  Ti61  1  0.874963  0.124967  0.910145  1
  Ti  Ti62  1  0.375053  0.625049  0.910072  1
  Ti  Ti63  1  0.874924  0.625021  0.910107  1
  Ti  Ti64  1  0.384752  0.376594  0.665645  1
  Ti  Ti65  1  0.888347  0.389261  0.648970  1
  Ti  Ti66  1  0.375915  0.885690  0.664686  1
  Ti  Ti67  1  0.902552  0.879984  0.652350  1
  Ti  Ti68  1  0.111651  0.110734  0.648969  1
  Ti  Ti69  1  0.615246  0.123400  0.665646  1
  Ti  Ti70  1  0.097444  0.620009  0.652350  1
  Ti  Ti71  1  0.624084  0.614305  0.664687  1
  Ti  Ti72  1  0.141391  0.362158  0.571731  1
  Ti  Ti73  1  0.639291  0.364519  0.580645  1
  Ti  Ti74  1  0.160534  0.855515  0.565918  1
  Ti  Ti75  1  0.672621  0.910973  0.569255  1
  Ti  Ti76  1  0.360709  0.135479  0.580645  1
  Ti  Ti77  1  0.858608  0.137840  0.571731  1
  Ti  Ti78  1  0.327378  0.589025  0.569254  1
  Ti  Ti79  1  0.839465  0.644483  0.565918  1
  Ti  Ti80  1  0.398654  0.361149  0.483356  1
  Ti  Ti81  1  0.887205  0.381568  0.489521  1
  Ti  Ti82  1  0.383216  0.929310  0.477490  1
  Ti  Ti83  1  0.916269  0.884677  0.484818  1
  Ti  Ti84  1  0.112795  0.118431  0.489521  1
  Ti  Ti85  1  0.601346  0.138850  0.483356  1
  Ti  Ti86  1  0.083731  0.615322  0.484818  1
  Ti  Ti87  1  0.616784  0.570689  0.477491  1
  Ti  Ti88  1  0.125569  0.875123  0.737674  1
  Ti  Ti89  1  0.624935  0.874616  0.737546  1
  Ti  Ti90  1  0.375058  0.625365  0.737538  1
  Ti  Ti91  1  0.874420  0.624854  0.737682  1
  Ti  Ti92  1  0.125090  0.374960  0.737770  1
  Ti  Ti93  1  0.625202  0.374724  0.737587  1
  Ti  Ti94  1  0.374793  0.125257  0.737585  1
  Ti  Ti95  1  0.874896  0.125009  0.737771  1
  Ti  Ti96  1  0.500000  0.749999  0.531551  1
