# generated using pymatgen
data_ZrTi96
_symmetry_space_group_name_H-M   'P 1'
_cell_length_a   9.51302000
_cell_length_b   9.35086000
_cell_length_c   18.54723000
_cell_angle_alpha   90.00000000
_cell_angle_beta   90.00000000
_cell_angle_gamma   90.00000000
_symmetry_Int_Tables_number   1
_chemical_formula_structural   ZrTi96
_chemical_formula_sum   'Zr1 Ti96'
_cell_volume   1649.86732743
_cell_formula_units_Z   1
loop_
 _symmetry_equiv_pos_site_id
 _symmetry_equiv_pos_as_xyz
  1  'x, y, z'
loop_
 _atom_site_type_symbol
 _atom_site_label
 _atom_site_symmetry_multiplicity
 _atom_site_fract_x
 _atom_site_fract_y
 _atom_site_fract_z
 _atom_site_occupancy
  Ti  Ti0  1  0.149024  0.373329  0.403108  1
  Ti  Ti1  1  0.660277  0.395719  0.409723  1
  Ti  Ti2  1  0.162398  0.873613  0.400130  1
  Ti  Ti3  1  0.581824  0.939588  0.412413  1
  Ti  Ti4  1  0.153987  0.372365  0.238248  1
  Ti  Ti5  1  0.659203  0.376137  0.230723  1
  Ti  Ti6  1  0.165726  0.881621  0.233045  1
  Ti  Ti7  1  0.661822  0.881278  0.237360  1
  Ti  Ti8  1  0.166665  0.374986  0.077577  1
  Ti  Ti9  1  0.666711  0.375010  0.077607  1
  Ti  Ti10  1  0.166682  0.874996  0.077573  1
  Ti  Ti11  1  0.666672  0.874990  0.077650  1
  Ti  Ti12  1  0.398283  0.370262  0.323581  1
  Ti  Ti13  1  0.892160  0.351994  0.320072  1
  Ti  Ti14  1  0.405551  0.861586  0.310867  1
  Ti  Ti15  1  0.927805  0.895194  0.314844  1
  Ti  Ti16  1  0.416726  0.375087  0.155216  1
  Ti  Ti17  1  0.916747  0.374895  0.155199  1
  Ti  Ti18  1  0.416635  0.875016  0.155256  1
  Ti  Ti19  1  0.916607  0.874895  0.155180  1
  Ti  Ti20  1  0.416660  0.375019  -0.000021  1
  Ti  Ti21  1  0.916676  0.374999  -0.000012  1
  Ti  Ti22  1  0.416668  0.874991  0.000008  1
  Ti  Ti23  1  0.916662  0.874985  -0.000007  1
  Ti  Ti24  1  0.101717  0.129738  0.323580  1
  Ti  Ti25  1  0.607839  0.148007  0.320071  1
  Ti  Ti26  1  0.094448  0.638415  0.310866  1
  Ti  Ti27  1  0.572195  0.604807  0.314843  1
  Ti  Ti28  1  0.083277  0.124924  0.155217  1
  Ti  Ti29  1  0.583250  0.125118  0.155197  1
  Ti  Ti30  1  0.083366  0.624993  0.155255  1
  Ti  Ti31  1  0.583389  0.625119  0.155179  1
  Ti  Ti32  1  0.083344  0.124985  -0.000020  1
  Ti  Ti33  1  0.583322  0.125004  -0.000012  1
  Ti  Ti34  1  0.083336  0.625009  0.000007  1
  Ti  Ti35  1  0.583337  0.625017  -0.000007  1
  Ti  Ti36  1  0.350975  0.126671  0.403107  1
  Ti  Ti37  1  0.839722  0.104282  0.409723  1
  Ti  Ti38  1  0.337600  0.626387  0.400130  1
  Ti  Ti39  1  0.918175  0.560412  0.412413  1
  Ti  Ti40  1  0.346012  0.127637  0.238248  1
  Ti  Ti41  1  0.840795  0.123866  0.230724  1
  Ti  Ti42  1  0.334273  0.618381  0.233045  1
  Ti  Ti43  1  0.838177  0.618725  0.237360  1
  Ti  Ti44  1  0.333335  0.125023  0.077577  1
  Ti  Ti45  1  0.833289  0.125001  0.077607  1
  Ti  Ti46  1  0.333316  0.625014  0.077573  1
  Ti  Ti47  1  0.833328  0.625018  0.077650  1
  Ti  Ti48  1  0.374967  0.375024  0.823794  1
  Ti  Ti49  1  0.875009  0.375008  0.823845  1
  Ti  Ti50  1  0.375015  0.874985  0.823831  1
  Ti  Ti51  1  0.875004  0.874992  0.823836  1
  Ti  Ti52  1  0.125034  0.124970  0.823795  1
  Ti  Ti53  1  0.624991  0.124985  0.823846  1
  Ti  Ti54  1  0.124987  0.625007  0.823831  1
  Ti  Ti55  1  0.624998  0.625001  0.823836  1
  Ti  Ti56  1  0.124954  0.375010  0.910122  1
  Ti  Ti57  1  0.625033  0.375042  0.910159  1
  Ti  Ti58  1  0.124960  0.874976  0.910136  1
  Ti  Ti59  1  0.625033  0.874959  0.910186  1
  Ti  Ti60  1  0.375048  0.124982  0.910122  1
  Ti  Ti61  1  0.874969  0.124950  0.910161  1
  Ti  Ti62  1  0.375042  0.625016  0.910136  1
  Ti  Ti63  1  0.874968  0.625033  0.910185  1
  Ti  Ti64  1  0.393275  0.363442  0.652680  1
  Ti  Ti65  1  0.892630  0.364368  0.660108  1
  Ti  Ti66  1  0.394440  0.868055  0.659710  1
  Ti  Ti67  1  0.890126  0.860117  0.649919  1
  Ti  Ti68  1  0.106725  0.136556  0.652680  1
  Ti  Ti69  1  0.607370  0.135630  0.660107  1
  Ti  Ti70  1  0.105560  0.631943  0.659710  1
  Ti  Ti71  1  0.609873  0.639881  0.649919  1
  Ti  Ti72  1  0.143108  0.379375  0.571077  1
  Ti  Ti73  1  0.648113  0.384179  0.577546  1
  Ti  Ti74  1  0.153028  0.887860  0.581896  1
  Ti  Ti75  1  0.638934  0.904166  0.571598  1
  Ti  Ti76  1  0.356892  0.120625  0.571077  1
  Ti  Ti77  1  0.851887  0.115820  0.577546  1
  Ti  Ti78  1  0.346972  0.612140  0.581896  1
  Ti  Ti79  1  0.861066  0.595833  0.571598  1
  Ti  Ti80  1  0.391978  0.379801  0.484914  1
  Ti  Ti81  1  0.903054  0.336328  0.490718  1
  Ti  Ti82  1  0.383814  0.856321  0.497211  1
  Ti  Ti83  1  0.919399  0.878210  0.494049  1
  Ti  Ti84  1  0.108022  0.120199  0.484914  1
  Ti  Ti85  1  0.596946  0.163672  0.490717  1
  Ti  Ti86  1  0.116186  0.643679  0.497211  1
  Ti  Ti87  1  0.580600  0.621790  0.494049  1
  Ti  Ti88  1  0.124999  0.875032  0.737513  1
  Ti  Ti89  1  0.625075  0.874917  0.737585  1
  Ti  Ti90  1  0.375000  0.624960  0.737513  1
  Ti  Ti91  1  0.874919  0.625071  0.737585  1
  Ti  Ti92  1  0.124976  0.374880  0.737511  1
  Ti  Ti93  1  0.624952  0.375144  0.737578  1
  Ti  Ti94  1  0.375024  0.125113  0.737509  1
  Ti  Ti95  1  0.875044  0.124846  0.737580  1
  Zr  Zr96  1  0.750000  0.750000  0.405314  1
