# generated using pymatgen
data_Ti96Sn
_symmetry_space_group_name_H-M   'P 1'
_cell_length_a   9.51302000
_cell_length_b   9.35086000
_cell_length_c   18.54723000
_cell_angle_alpha   90.00000000
_cell_angle_beta   90.00000000
_cell_angle_gamma   90.00000000
_symmetry_Int_Tables_number   1
_chemical_formula_structural   Ti96Sn
_chemical_formula_sum   'Ti96 Sn1'
_cell_volume   1649.86732743
_cell_formula_units_Z   1
loop_
 _symmetry_equiv_pos_site_id
 _symmetry_equiv_pos_as_xyz
  1  'x, y, z'
loop_
 _atom_site_type_symbol
 _atom_site_label
 _atom_site_symmetry_multiplicity
 _atom_site_fract_x
 _atom_site_fract_y
 _atom_site_fract_z
 _atom_site_occupancy
  Ti  Ti0  1  0.136828  0.381847  0.406792  1
  Ti  Ti1  1  0.652134  0.362490  0.401984  1
  Ti  Ti2  1  0.167476  0.882258  0.400284  1
  Ti  Ti3  1  0.611670  0.951045  0.409251  1
  Ti  Ti4  1  0.161404  0.376621  0.233131  1
  Ti  Ti5  1  0.658920  0.376693  0.231880  1
  Ti  Ti6  1  0.162801  0.876712  0.235557  1
  Ti  Ti7  1  0.660964  0.879824  0.234573  1
  Ti  Ti8  1  0.166636  0.374981  0.077525  1
  Ti  Ti9  1  0.666693  0.375019  0.077522  1
  Ti  Ti10  1  0.166699  0.874989  0.077539  1
  Ti  Ti11  1  0.666659  0.874948  0.077663  1
  Ti  Ti12  1  0.387530  0.365131  0.322836  1
  Ti  Ti13  1  0.909036  0.359475  0.310656  1
  Ti  Ti14  1  0.412125  0.866310  0.315740  1
  Ti  Ti15  1  0.921628  0.898183  0.321181  1
  Ti  Ti16  1  0.416510  0.375047  0.155099  1
  Ti  Ti17  1  0.916822  0.374860  0.155109  1
  Ti  Ti18  1  0.416659  0.875028  0.155232  1
  Ti  Ti19  1  0.916646  0.874804  0.155162  1
  Ti  Ti20  1  0.416654  0.375015  -0.000048  1
  Ti  Ti21  1  0.916648  0.375006  -0.000031  1
  Ti  Ti22  1  0.416711  0.874989  -0.000008  1
  Ti  Ti23  1  0.916624  0.874968  -0.000013  1
  Ti  Ti24  1  0.112470  0.134870  0.322835  1
  Ti  Ti25  1  0.590964  0.140526  0.310654  1
  Ti  Ti26  1  0.087875  0.633691  0.315739  1
  Ti  Ti27  1  0.578372  0.601818  0.321180  1
  Ti  Ti28  1  0.083495  0.124973  0.155098  1
  Ti  Ti29  1  0.583174  0.125159  0.155107  1
  Ti  Ti30  1  0.083343  0.624987  0.155232  1
  Ti  Ti31  1  0.583351  0.625216  0.155160  1
  Ti  Ti32  1  0.083351  0.124994  -0.000048  1
  Ti  Ti33  1  0.583349  0.125000  -0.000029  1
  Ti  Ti34  1  0.083294  0.625017  -0.000008  1
  Ti  Ti35  1  0.583375  0.625040  -0.000012  1
  Ti  Ti36  1  0.363171  0.118153  0.406792  1
  Ti  Ti37  1  0.847865  0.137510  0.401984  1
  Ti  Ti38  1  0.332523  0.617742  0.400284  1
  Ti  Ti39  1  0.888329  0.548955  0.409251  1
  Ti  Ti40  1  0.338595  0.123383  0.233131  1
  Ti  Ti41  1  0.841079  0.123312  0.231880  1
  Ti  Ti42  1  0.337198  0.623292  0.235557  1
  Ti  Ti43  1  0.839034  0.620180  0.234573  1
  Ti  Ti44  1  0.333363  0.125035  0.077525  1
  Ti  Ti45  1  0.833307  0.124997  0.077522  1
  Ti  Ti46  1  0.333300  0.625028  0.077539  1
  Ti  Ti47  1  0.833341  0.625065  0.077662  1
  Ti  Ti48  1  0.374965  0.375009  0.823969  1
  Ti  Ti49  1  0.875003  0.374976  0.823905  1
  Ti  Ti50  1  0.375065  0.874995  0.823914  1
  Ti  Ti51  1  0.874956  0.874943  0.823840  1
  Ti  Ti52  1  0.125040  0.124979  0.823969  1
  Ti  Ti53  1  0.625004  0.125015  0.823906  1
  Ti  Ti54  1  0.124940  0.624994  0.823915  1
  Ti  Ti55  1  0.625050  0.625050  0.823841  1
  Ti  Ti56  1  0.124935  0.375038  0.910147  1
  Ti  Ti57  1  0.625055  0.375060  0.910122  1
  Ti  Ti58  1  0.124932  0.874943  0.910123  1
  Ti  Ti59  1  0.625057  0.874945  0.910088  1
  Ti  Ti60  1  0.375072  0.124957  0.910148  1
  Ti  Ti61  1  0.874949  0.124933  0.910122  1
  Ti  Ti62  1  0.375072  0.625048  0.910124  1
  Ti  Ti63  1  0.874947  0.625053  0.910088  1
  Ti  Ti64  1  0.391139  0.365127  0.647793  1
  Ti  Ti65  1  0.888434  0.362940  0.665083  1
  Ti  Ti66  1  0.383046  0.864324  0.664739  1
  Ti  Ti67  1  0.888091  0.865406  0.655302  1
  Ti  Ti68  1  0.108859  0.134869  0.647793  1
  Ti  Ti69  1  0.611564  0.137055  0.665083  1
  Ti  Ti70  1  0.116952  0.635669  0.664739  1
  Ti  Ti71  1  0.611908  0.634588  0.655303  1
  Ti  Ti72  1  0.141153  0.391615  0.574280  1
  Ti  Ti73  1  0.651812  0.387036  0.580105  1
  Ti  Ti74  1  0.147922  0.881076  0.577248  1
  Ti  Ti75  1  0.627995  0.899845  0.581379  1
  Ti  Ti76  1  0.358846  0.108383  0.574280  1
  Ti  Ti77  1  0.848187  0.112962  0.580105  1
  Ti  Ti78  1  0.352077  0.618922  0.577248  1
  Ti  Ti79  1  0.872004  0.600153  0.581379  1
  Ti  Ti80  1  0.381555  0.371186  0.489353  1
  Ti  Ti81  1  0.904969  0.339505  0.499516  1
  Ti  Ti82  1  0.398216  0.851778  0.491393  1
  Ti  Ti83  1  0.922699  0.907204  0.486028  1
  Ti  Ti84  1  0.118445  0.128814  0.489353  1
  Ti  Ti85  1  0.595031  0.160495  0.499516  1
  Ti  Ti86  1  0.101784  0.648221  0.491393  1
  Ti  Ti87  1  0.577301  0.592796  0.486028  1
  Ti  Ti88  1  0.125205  0.874936  0.737750  1
  Ti  Ti89  1  0.624999  0.875136  0.737578  1
  Ti  Ti90  1  0.374785  0.625037  0.737752  1
  Ti  Ti91  1  0.874996  0.624849  0.737580  1
  Ti  Ti92  1  0.125038  0.374933  0.737744  1
  Ti  Ti93  1  0.625035  0.374962  0.737765  1
  Ti  Ti94  1  0.374953  0.125044  0.737743  1
  Ti  Ti95  1  0.874955  0.125010  0.737765  1
  Sn  Sn96  1  0.750000  0.750000  0.421617  1
