# generated using pymatgen
data_ZrTi96
_symmetry_space_group_name_H-M   'P 1'
_cell_length_a   9.51302000
_cell_length_b   9.35086000
_cell_length_c   18.54723000
_cell_angle_alpha   90.00000000
_cell_angle_beta   90.00000000
_cell_angle_gamma   90.00000000
_symmetry_Int_Tables_number   1
_chemical_formula_structural   ZrTi96
_chemical_formula_sum   'Zr1 Ti96'
_cell_volume   1649.86732743
_cell_formula_units_Z   1
loop_
 _symmetry_equiv_pos_site_id
 _symmetry_equiv_pos_as_xyz
  1  'x, y, z'
loop_
 _atom_site_type_symbol
 _atom_site_label
 _atom_site_symmetry_multiplicity
 _atom_site_fract_x
 _atom_site_fract_y
 _atom_site_fract_z
 _atom_site_occupancy
  Ti  Ti0  1  0.145961  0.375576  0.399917  1
  Ti  Ti1  1  0.654358  0.374147  0.398825  1
  Ti  Ti2  1  0.166223  0.879520  0.400038  1
  Ti  Ti3  1  0.621676  0.928817  0.397877  1
  Ti  Ti4  1  0.161644  0.375204  0.236069  1
  Ti  Ti5  1  0.660328  0.380871  0.233392  1
  Ti  Ti6  1  0.159982  0.877275  0.234495  1
  Ti  Ti7  1  0.660010  0.876079  0.235956  1
  Ti  Ti8  1  0.166640  0.374993  0.077624  1
  Ti  Ti9  1  0.666694  0.375003  0.077609  1
  Ti  Ti10  1  0.166708  0.874995  0.077588  1
  Ti  Ti11  1  0.666676  0.875012  0.077634  1
  Ti  Ti12  1  0.404200  0.376711  0.319806  1
  Ti  Ti13  1  0.907298  0.358524  0.311110  1
  Ti  Ti14  1  0.405753  0.869881  0.313615  1
  Ti  Ti15  1  0.912565  0.869962  0.323680  1
  Ti  Ti16  1  0.416652  0.374998  0.155249  1
  Ti  Ti17  1  0.916688  0.374968  0.155264  1
  Ti  Ti18  1  0.416762  0.875013  0.155274  1
  Ti  Ti19  1  0.916680  0.874922  0.155203  1
  Ti  Ti20  1  0.416665  0.375008  -0.000016  1
  Ti  Ti21  1  0.916665  0.375005  -0.000011  1
  Ti  Ti22  1  0.416688  0.875003  -0.000007  1
  Ti  Ti23  1  0.916667  0.874996  -0.000023  1
  Ti  Ti24  1  0.095800  0.123289  0.319805  1
  Ti  Ti25  1  0.592702  0.141476  0.311109  1
  Ti  Ti26  1  0.094247  0.630119  0.313614  1
  Ti  Ti27  1  0.587435  0.630039  0.323679  1
  Ti  Ti28  1  0.083350  0.125011  0.155249  1
  Ti  Ti29  1  0.583311  0.125040  0.155263  1
  Ti  Ti30  1  0.083239  0.624995  0.155275  1
  Ti  Ti31  1  0.583317  0.625089  0.155202  1
  Ti  Ti32  1  0.083337  0.124994  -0.000015  1
  Ti  Ti33  1  0.583334  0.124997  -0.000011  1
  Ti  Ti34  1  0.083315  0.624999  -0.000007  1
  Ti  Ti35  1  0.583333  0.625009  -0.000023  1
  Ti  Ti36  1  0.354038  0.124424  0.399917  1
  Ti  Ti37  1  0.845641  0.125853  0.398825  1
  Ti  Ti38  1  0.333776  0.620480  0.400038  1
  Ti  Ti39  1  0.878323  0.571183  0.397877  1
  Ti  Ti40  1  0.338355  0.124797  0.236069  1
  Ti  Ti41  1  0.839670  0.119131  0.233393  1
  Ti  Ti42  1  0.340017  0.622727  0.234495  1
  Ti  Ti43  1  0.839988  0.623923  0.235956  1
  Ti  Ti44  1  0.333359  0.125012  0.077624  1
  Ti  Ti45  1  0.833305  0.125004  0.077608  1
  Ti  Ti46  1  0.333291  0.625012  0.077588  1
  Ti  Ti47  1  0.833323  0.624995  0.077634  1
  Ti  Ti48  1  0.374942  0.375021  0.823827  1
  Ti  Ti49  1  0.875001  0.374984  0.823813  1
  Ti  Ti50  1  0.375027  0.874985  0.823784  1
  Ti  Ti51  1  0.875015  0.875015  0.823809  1
  Ti  Ti52  1  0.125062  0.124976  0.823828  1
  Ti  Ti53  1  0.625002  0.125014  0.823813  1
  Ti  Ti54  1  0.124975  0.625011  0.823785  1
  Ti  Ti55  1  0.624986  0.624980  0.823811  1
  Ti  Ti56  1  0.124961  0.375000  0.910114  1
  Ti  Ti57  1  0.625016  0.375012  0.910112  1
  Ti  Ti58  1  0.124990  0.874988  0.910094  1
  Ti  Ti59  1  0.625013  0.874997  0.910093  1
  Ti  Ti60  1  0.375042  0.124996  0.910114  1
  Ti  Ti61  1  0.874988  0.124985  0.910112  1
  Ti  Ti62  1  0.375013  0.625009  0.910094  1
  Ti  Ti63  1  0.874989  0.625003  0.910093  1
  Ti  Ti64  1  0.394150  0.370994  0.646813  1
  Ti  Ti65  1  0.890502  0.361656  0.665418  1
  Ti  Ti66  1  0.385083  0.864215  0.664620  1
  Ti  Ti67  1  0.890585  0.860481  0.647471  1
  Ti  Ti68  1  0.105850  0.129005  0.646813  1
  Ti  Ti69  1  0.609497  0.138342  0.665417  1
  Ti  Ti70  1  0.114916  0.635782  0.664620  1
  Ti  Ti71  1  0.609414  0.639516  0.647471  1
  Ti  Ti72  1  0.139261  0.387219  0.574160  1
  Ti  Ti73  1  0.654239  0.377834  0.579456  1
  Ti  Ti74  1  0.158142  0.878138  0.573273  1
  Ti  Ti75  1  0.618440  0.913679  0.580787  1
  Ti  Ti76  1  0.360738  0.112781  0.574160  1
  Ti  Ti77  1  0.845760  0.122165  0.579456  1
  Ti  Ti78  1  0.341858  0.621862  0.573273  1
  Ti  Ti79  1  0.881559  0.586320  0.580787  1
  Ti  Ti80  1  0.379962  0.364824  0.486811  1
  Ti  Ti81  1  0.903322  0.345527  0.491055  1
  Ti  Ti82  1  0.404725  0.855742  0.484385  1
  Ti  Ti83  1  0.937065  0.917983  0.487050  1
  Ti  Ti84  1  0.120038  0.135176  0.486811  1
  Ti  Ti85  1  0.596677  0.154472  0.491055  1
  Ti  Ti86  1  0.095275  0.644257  0.484385  1
  Ti  Ti87  1  0.562934  0.582017  0.487050  1
  Ti  Ti88  1  0.125227  0.875012  0.737543  1
  Ti  Ti89  1  0.625134  0.875032  0.737578  1
  Ti  Ti90  1  0.374770  0.624979  0.737546  1
  Ti  Ti91  1  0.874860  0.624956  0.737580  1
  Ti  Ti92  1  0.124921  0.374925  0.737561  1
  Ti  Ti93  1  0.625023  0.374908  0.737601  1
  Ti  Ti94  1  0.375075  0.125065  0.737558  1
  Ti  Ti95  1  0.874972  0.125077  0.737600  1
  Zr  Zr96  1  0.750000  0.750000  0.468178  1
