# generated using pymatgen
data_Ti96Al
_symmetry_space_group_name_H-M   'P 1'
_cell_length_a   9.51302000
_cell_length_b   9.35086000
_cell_length_c   18.54723000
_cell_angle_alpha   90.00000000
_cell_angle_beta   90.00000000
_cell_angle_gamma   90.00000000
_symmetry_Int_Tables_number   1
_chemical_formula_structural   Ti96Al
_chemical_formula_sum   'Ti96 Al1'
_cell_volume   1649.86732743
_cell_formula_units_Z   1
loop_
 _symmetry_equiv_pos_site_id
 _symmetry_equiv_pos_as_xyz
  1  'x, y, z'
loop_
 _atom_site_type_symbol
 _atom_site_label
 _atom_site_symmetry_multiplicity
 _atom_site_fract_x
 _atom_site_fract_y
 _atom_site_fract_z
 _atom_site_occupancy
  Ti  Ti0  1  0.140680  0.380752  0.407606  1
  Ti  Ti1  1  0.653102  0.368015  0.404746  1
  Ti  Ti2  1  0.165845  0.882438  0.398364  1
  Ti  Ti3  1  0.612129  0.938395  0.419149  1
  Ti  Ti4  1  0.159910  0.374760  0.234445  1
  Ti  Ti5  1  0.658388  0.371222  0.231279  1
  Ti  Ti6  1  0.165426  0.876751  0.236482  1
  Ti  Ti7  1  0.663988  0.879331  0.235065  1
  Ti  Ti8  1  0.166666  0.374991  0.077522  1
  Ti  Ti9  1  0.666705  0.375021  0.077567  1
  Ti  Ti10  1  0.166664  0.874997  0.077533  1
  Ti  Ti11  1  0.666670  0.875031  0.077654  1
  Ti  Ti12  1  0.390350  0.361726  0.322752  1
  Ti  Ti13  1  0.905318  0.366786  0.314853  1
  Ti  Ti14  1  0.418779  0.866203  0.317281  1
  Ti  Ti15  1  0.927263  0.907110  0.316239  1
  Ti  Ti16  1  0.416681  0.375061  0.155104  1
  Ti  Ti17  1  0.916752  0.374929  0.155131  1
  Ti  Ti18  1  0.416649  0.875126  0.155180  1
  Ti  Ti19  1  0.916525  0.874940  0.155191  1
  Ti  Ti20  1  0.416681  0.375018  -0.000074  1
  Ti  Ti21  1  0.916635  0.375001  -0.000057  1
  Ti  Ti22  1  0.416704  0.875012  -0.000036  1
  Ti  Ti23  1  0.916613  0.874988  -0.000030  1
  Ti  Ti24  1  0.109650  0.138275  0.322751  1
  Ti  Ti25  1  0.594682  0.133215  0.314852  1
  Ti  Ti26  1  0.081221  0.633798  0.317280  1
  Ti  Ti27  1  0.572737  0.592892  0.316239  1
  Ti  Ti28  1  0.083323  0.124959  0.155105  1
  Ti  Ti29  1  0.583245  0.125090  0.155130  1
  Ti  Ti30  1  0.083354  0.624890  0.155181  1
  Ti  Ti31  1  0.583472  0.625077  0.155191  1
  Ti  Ti32  1  0.083323  0.124990  -0.000074  1
  Ti  Ti33  1  0.583362  0.125006  -0.000057  1
  Ti  Ti34  1  0.083299  0.624993  -0.000038  1
  Ti  Ti35  1  0.583385  0.625018  -0.000030  1
  Ti  Ti36  1  0.359319  0.119248  0.407606  1
  Ti  Ti37  1  0.846897  0.131985  0.404746  1
  Ti  Ti38  1  0.334154  0.617562  0.398364  1
  Ti  Ti39  1  0.887870  0.561605  0.419149  1
  Ti  Ti40  1  0.340090  0.125244  0.234445  1
  Ti  Ti41  1  0.841611  0.128782  0.231279  1
  Ti  Ti42  1  0.334573  0.623253  0.236483  1
  Ti  Ti43  1  0.836011  0.620673  0.235065  1
  Ti  Ti44  1  0.333333  0.125025  0.077522  1
  Ti  Ti45  1  0.833294  0.124993  0.077567  1
  Ti  Ti46  1  0.333334  0.625019  0.077533  1
  Ti  Ti47  1  0.833330  0.624980  0.077654  1
  Ti  Ti48  1  0.374960  0.375032  0.823871  1
  Ti  Ti49  1  0.874963  0.375022  0.823868  1
  Ti  Ti50  1  0.375060  0.874973  0.823876  1
  Ti  Ti51  1  0.875016  0.874932  0.823744  1
  Ti  Ti52  1  0.125042  0.124959  0.823871  1
  Ti  Ti53  1  0.625039  0.124968  0.823868  1
  Ti  Ti54  1  0.124944  0.625013  0.823875  1
  Ti  Ti55  1  0.624990  0.625059  0.823744  1
  Ti  Ti56  1  0.124950  0.375035  0.910132  1
  Ti  Ti57  1  0.625040  0.375086  0.910127  1
  Ti  Ti58  1  0.124943  0.874957  0.910141  1
  Ti  Ti59  1  0.625079  0.874936  0.910151  1
  Ti  Ti60  1  0.375055  0.124957  0.910133  1
  Ti  Ti61  1  0.874963  0.124905  0.910128  1
  Ti  Ti62  1  0.375061  0.625032  0.910140  1
  Ti  Ti63  1  0.874924  0.625054  0.910148  1
  Ti  Ti64  1  0.395858  0.361269  0.647938  1
  Ti  Ti65  1  0.889746  0.361282  0.658198  1
  Ti  Ti66  1  0.382295  0.865355  0.663584  1
  Ti  Ti67  1  0.885717  0.865914  0.661030  1
  Ti  Ti68  1  0.104141  0.138727  0.647938  1
  Ti  Ti69  1  0.610253  0.138713  0.658198  1
  Ti  Ti70  1  0.117704  0.634640  0.663583  1
  Ti  Ti71  1  0.614281  0.634082  0.661031  1
  Ti  Ti72  1  0.147750  0.390974  0.572758  1
  Ti  Ti73  1  0.653078  0.402735  0.573981  1
  Ti  Ti74  1  0.138245  0.883874  0.579810  1
  Ti  Ti75  1  0.627411  0.884935  0.580053  1
  Ti  Ti76  1  0.352250  0.109024  0.572758  1
  Ti  Ti77  1  0.846922  0.097264  0.573981  1
  Ti  Ti78  1  0.361755  0.616125  0.579810  1
  Ti  Ti79  1  0.872589  0.615063  0.580053  1
  Ti  Ti80  1  0.391989  0.373950  0.489295  1
  Ti  Ti81  1  0.903722  0.341661  0.500564  1
  Ti  Ti82  1  0.385236  0.851925  0.494152  1
  Ti  Ti83  1  0.911188  0.877296  0.479366  1
  Ti  Ti84  1  0.108011  0.126050  0.489295  1
  Ti  Ti85  1  0.596278  0.158339  0.500564  1
  Ti  Ti86  1  0.114764  0.648074  0.494152  1
  Ti  Ti87  1  0.588812  0.622704  0.479366  1
  Ti  Ti88  1  0.125233  0.875001  0.737612  1
  Ti  Ti89  1  0.625143  0.875006  0.737543  1
  Ti  Ti90  1  0.374760  0.624980  0.737614  1
  Ti  Ti91  1  0.874853  0.624980  0.737545  1
  Ti  Ti92  1  0.124988  0.375000  0.737650  1
  Ti  Ti93  1  0.624826  0.375224  0.737619  1
  Ti  Ti94  1  0.375005  0.124980  0.737650  1
  Ti  Ti95  1  0.875168  0.124757  0.737621  1
  Al  Al96  1  0.750000  0.750000  0.388151  1
