# generated using pymatgen
data_Ti96Sn
_symmetry_space_group_name_H-M   'P 1'
_cell_length_a   9.51302000
_cell_length_b   9.35086000
_cell_length_c   18.54723000
_cell_angle_alpha   90.00000000
_cell_angle_beta   90.00000000
_cell_angle_gamma   90.00000000
_symmetry_Int_Tables_number   1
_chemical_formula_structural   Ti96Sn
_chemical_formula_sum   'Ti96 Sn1'
_cell_volume   1649.86732743
_cell_formula_units_Z   1
loop_
 _symmetry_equiv_pos_site_id
 _symmetry_equiv_pos_as_xyz
  1  'x, y, z'
loop_
 _atom_site_type_symbol
 _atom_site_label
 _atom_site_symmetry_multiplicity
 _atom_site_fract_x
 _atom_site_fract_y
 _atom_site_fract_z
 _atom_site_occupancy
  Ti  Ti0  1  0.145728  0.383249  0.400861  1
  Ti  Ti1  1  0.669165  0.352215  0.379976  1
  Ti  Ti2  1  0.145085  0.866203  0.404360  1
  Ti  Ti3  1  0.659307  0.854036  0.418907  1
  Ti  Ti4  1  0.162711  0.370352  0.238352  1
  Ti  Ti5  1  0.651731  0.371269  0.233484  1
  Ti  Ti6  1  0.162645  0.874797  0.233986  1
  Ti  Ti7  1  0.662344  0.872650  0.232713  1
  Ti  Ti8  1  0.166666  0.375000  0.077689  1
  Ti  Ti9  1  0.666666  0.375000  0.077689  1
  Ti  Ti10  1  0.166666  0.875000  0.077689  1
  Ti  Ti11  1  0.666666  0.875000  0.077689  1
  Ti  Ti12  1  0.405145  0.406382  0.324098  1
  Ti  Ti13  1  0.914926  0.383553  0.315845  1
  Ti  Ti14  1  0.397529  0.872382  0.317834  1
  Ti  Ti15  1  0.900024  0.872997  0.317004  1
  Ti  Ti16  1  0.416667  0.375000  0.155379  1
  Ti  Ti17  1  0.916667  0.375000  0.155379  1
  Ti  Ti18  1  0.416667  0.875000  0.155379  1
  Ti  Ti19  1  0.916667  0.875000  0.155379  1
  Ti  Ti20  1  0.416667  0.375000  0.000000  1
  Ti  Ti21  1  0.916667  0.375000  0.000000  1
  Ti  Ti22  1  0.416667  0.875000  0.000000  1
  Ti  Ti23  1  0.916667  0.875000  0.000000  1
  Ti  Ti24  1  0.085074  0.116447  0.315844  1
  Ti  Ti25  1  0.594855  0.093618  0.324097  1
  Ti  Ti26  1  0.099976  0.627003  0.317003  1
  Ti  Ti27  1  0.602471  0.627618  0.317833  1
  Ti  Ti28  1  0.083333  0.125000  0.155379  1
  Ti  Ti29  1  0.583333  0.125000  0.155379  1
  Ti  Ti30  1  0.083333  0.625000  0.155379  1
  Ti  Ti31  1  0.583333  0.625000  0.155379  1
  Ti  Ti32  1  0.083333  0.125000  0.000000  1
  Ti  Ti33  1  0.583333  0.125000  0.000000  1
  Ti  Ti34  1  0.083333  0.625000  0.000000  1
  Ti  Ti35  1  0.583333  0.625000  0.000000  1
  Ti  Ti36  1  0.330834  0.147785  0.379976  1
  Ti  Ti37  1  0.854271  0.116751  0.400861  1
  Ti  Ti38  1  0.340692  0.645964  0.418907  1
  Ti  Ti39  1  0.854914  0.633797  0.404360  1
  Ti  Ti40  1  0.348268  0.128731  0.233484  1
  Ti  Ti41  1  0.837288  0.129648  0.238352  1
  Ti  Ti42  1  0.337655  0.627350  0.232713  1
  Ti  Ti43  1  0.837354  0.625203  0.233986  1
  Ti  Ti44  1  0.333333  0.125000  0.077689  1
  Ti  Ti45  1  0.833333  0.125000  0.077689  1
  Ti  Ti46  1  0.333333  0.625000  0.077689  1
  Ti  Ti47  1  0.833333  0.625000  0.077689  1
  Ti  Ti48  1  0.375000  0.375000  0.823738  1
  Ti  Ti49  1  0.875000  0.375000  0.823738  1
  Ti  Ti50  1  0.375000  0.875000  0.823738  1
  Ti  Ti51  1  0.875000  0.875000  0.823738  1
  Ti  Ti52  1  0.125000  0.125000  0.823738  1
  Ti  Ti53  1  0.625000  0.125000  0.823738  1
  Ti  Ti54  1  0.125000  0.625000  0.823738  1
  Ti  Ti55  1  0.625000  0.625000  0.823738  1
  Ti  Ti56  1  0.125000  0.375000  0.910084  1
  Ti  Ti57  1  0.625000  0.375000  0.910084  1
  Ti  Ti58  1  0.125000  0.875000  0.910084  1
  Ti  Ti59  1  0.625000  0.875000  0.910084  1
  Ti  Ti60  1  0.375000  0.125000  0.910084  1
  Ti  Ti61  1  0.875000  0.125000  0.910084  1
  Ti  Ti62  1  0.375000  0.625000  0.910084  1
  Ti  Ti63  1  0.875000  0.625000  0.910084  1
  Ti  Ti64  1  0.377856  0.366933  0.673519  1
  Ti  Ti65  1  0.869356  0.406937  0.647560  1
  Ti  Ti66  1  0.377309  0.885469  0.666662  1
  Ti  Ti67  1  0.907937  0.876848  0.648860  1
  Ti  Ti68  1  0.130644  0.093063  0.647560  1
  Ti  Ti69  1  0.622144  0.133067  0.673519  1
  Ti  Ti70  1  0.092063  0.623152  0.648860  1
  Ti  Ti71  1  0.622691  0.614531  0.666662  1
  Ti  Ti72  1  0.121274  0.347030  0.575280  1
  Ti  Ti73  1  0.622570  0.357774  0.580108  1
  Ti  Ti74  1  0.184320  0.844590  0.557990  1
  Ti  Ti75  1  0.684114  0.950636  0.575965  1
  Ti  Ti76  1  0.377430  0.142226  0.580108  1
  Ti  Ti77  1  0.878726  0.152970  0.575280  1
  Ti  Ti78  1  0.315886  0.549364  0.575965  1
  Ti  Ti79  1  0.815680  0.655410  0.557990  1
  Ti  Ti80  1  0.385404  0.350846  0.476713  1
  Ti  Ti81  1  0.871591  0.386063  0.488506  1
  Ti  Ti82  1  0.395185  0.953145  0.466490  1
  Ti  Ti83  1  0.920536  0.892310  0.493362  1
  Ti  Ti84  1  0.128409  0.113937  0.488506  1
  Ti  Ti85  1  0.614596  0.149154  0.476713  1
  Ti  Ti86  1  0.079464  0.607690  0.493362  1
  Ti  Ti87  1  0.604815  0.546855  0.466490  1
  Ti  Ti88  1  0.125000  0.875000  0.737395  1
  Ti  Ti89  1  0.625000  0.875000  0.737395  1
  Ti  Ti90  1  0.375000  0.625000  0.737395  1
  Ti  Ti91  1  0.875000  0.625000  0.737395  1
  Ti  Ti92  1  0.125000  0.375000  0.737395  1
  Ti  Ti93  1  0.625000  0.375000  0.737395  1
  Ti  Ti94  1  0.375000  0.125000  0.737395  1
  Ti  Ti95  1  0.875000  0.125000  0.737395  1
  Sn  Sn96  1  0.500000  0.750000  0.549535  1
