# generated using pymatgen
data_Ti96Mo
_symmetry_space_group_name_H-M   'P 1'
_cell_length_a   9.51302000
_cell_length_b   9.35086000
_cell_length_c   18.54723000
_cell_angle_alpha   90.00000000
_cell_angle_beta   90.00000000
_cell_angle_gamma   90.00000000
_symmetry_Int_Tables_number   1
_chemical_formula_structural   Ti96Mo
_chemical_formula_sum   'Ti96 Mo1'
_cell_volume   1649.86732743
_cell_formula_units_Z   1
loop_
 _symmetry_equiv_pos_site_id
 _symmetry_equiv_pos_as_xyz
  1  'x, y, z'
loop_
 _atom_site_type_symbol
 _atom_site_label
 _atom_site_symmetry_multiplicity
 _atom_site_fract_x
 _atom_site_fract_y
 _atom_site_fract_z
 _atom_site_occupancy
  Ti  Ti0  1  0.140278  0.380689  0.403313  1
  Ti  Ti1  1  0.647824  0.359593  0.398359  1
  Ti  Ti2  1  0.168737  0.885007  0.403095  1
  Ti  Ti3  1  0.639109  0.934607  0.398975  1
  Ti  Ti4  1  0.162892  0.379091  0.235398  1
  Ti  Ti5  1  0.659923  0.380713  0.233871  1
  Ti  Ti6  1  0.159704  0.875719  0.236393  1
  Ti  Ti7  1  0.657179  0.877240  0.234978  1
  Ti  Ti8  1  0.166639  0.375030  0.077598  1
  Ti  Ti9  1  0.666685  0.375033  0.077581  1
  Ti  Ti10  1  0.166693  0.875011  0.077583  1
  Ti  Ti11  1  0.666672  0.874975  0.077626  1
  Ti  Ti12  1  0.399389  0.370670  0.319365  1
  Ti  Ti13  1  0.911919  0.361728  0.308806  1
  Ti  Ti14  1  0.408172  0.865723  0.319093  1
  Ti  Ti15  1  0.910580  0.875467  0.327242  1
  Ti  Ti16  1  0.416578  0.375044  0.155217  1
  Ti  Ti17  1  0.916736  0.375075  0.155196  1
  Ti  Ti18  1  0.416710  0.874959  0.155261  1
  Ti  Ti19  1  0.916722  0.874906  0.155245  1
  Ti  Ti20  1  0.416681  0.375003  -0.000015  1
  Ti  Ti21  1  0.916647  0.375019  -0.000012  1
  Ti  Ti22  1  0.416695  0.875001  -0.000009  1
  Ti  Ti23  1  0.916641  0.874998  -0.000003  1
  Ti  Ti24  1  0.100611  0.129331  0.319364  1
  Ti  Ti25  1  0.588081  0.138273  0.308805  1
  Ti  Ti26  1  0.091828  0.634278  0.319092  1
  Ti  Ti27  1  0.589420  0.624534  0.327241  1
  Ti  Ti28  1  0.083425  0.124971  0.155217  1
  Ti  Ti29  1  0.583261  0.124939  0.155197  1
  Ti  Ti30  1  0.083293  0.625054  0.155261  1
  Ti  Ti31  1  0.583275  0.625109  0.155244  1
  Ti  Ti32  1  0.083322  0.125006  -0.000015  1
  Ti  Ti33  1  0.583352  0.124989  -0.000011  1
  Ti  Ti34  1  0.083309  0.625005  -0.000008  1
  Ti  Ti35  1  0.583358  0.625009  -0.000003  1
  Ti  Ti36  1  0.359721  0.119311  0.403313  1
  Ti  Ti37  1  0.852175  0.140407  0.398359  1
  Ti  Ti38  1  0.331262  0.614993  0.403095  1
  Ti  Ti39  1  0.860890  0.565393  0.398975  1
  Ti  Ti40  1  0.337107  0.120912  0.235398  1
  Ti  Ti41  1  0.840077  0.119290  0.233870  1
  Ti  Ti42  1  0.340295  0.624284  0.236394  1
  Ti  Ti43  1  0.842820  0.622763  0.234978  1
  Ti  Ti44  1  0.333360  0.124983  0.077599  1
  Ti  Ti45  1  0.833314  0.124981  0.077581  1
  Ti  Ti46  1  0.333306  0.625002  0.077583  1
  Ti  Ti47  1  0.833328  0.625037  0.077626  1
  Ti  Ti48  1  0.375006  0.374969  0.823922  1
  Ti  Ti49  1  0.875020  0.374937  0.823809  1
  Ti  Ti50  1  0.375042  0.875031  0.823932  1
  Ti  Ti51  1  0.874943  0.874980  0.823881  1
  Ti  Ti52  1  0.125000  0.125021  0.823921  1
  Ti  Ti53  1  0.624988  0.125060  0.823809  1
  Ti  Ti54  1  0.124961  0.624959  0.823934  1
  Ti  Ti55  1  0.625062  0.625013  0.823882  1
  Ti  Ti56  1  0.124929  0.375017  0.910133  1
  Ti  Ti57  1  0.625056  0.375025  0.910101  1
  Ti  Ti58  1  0.124925  0.874984  0.910130  1
  Ti  Ti59  1  0.625038  0.874990  0.910078  1
  Ti  Ti60  1  0.375076  0.124981  0.910133  1
  Ti  Ti61  1  0.874947  0.124972  0.910100  1
  Ti  Ti62  1  0.375080  0.625011  0.910130  1
  Ti  Ti63  1  0.874968  0.625011  0.910078  1
  Ti  Ti64  1  0.389765  0.366585  0.647109  1
  Ti  Ti65  1  0.890797  0.366745  0.665792  1
  Ti  Ti66  1  0.385422  0.860659  0.662204  1
  Ti  Ti67  1  0.894432  0.862476  0.649904  1
  Ti  Ti68  1  0.110234  0.133410  0.647109  1
  Ti  Ti69  1  0.609202  0.133250  0.665791  1
  Ti  Ti70  1  0.114575  0.639334  0.662204  1
  Ti  Ti71  1  0.605565  0.637519  0.649905  1
  Ti  Ti72  1  0.138544  0.396074  0.574248  1
  Ti  Ti73  1  0.651213  0.378628  0.580903  1
  Ti  Ti74  1  0.156980  0.879858  0.570484  1
  Ti  Ti75  1  0.633681  0.900295  0.579609  1
  Ti  Ti76  1  0.361455  0.103924  0.574248  1
  Ti  Ti77  1  0.848787  0.121370  0.580902  1
  Ti  Ti78  1  0.343019  0.620140  0.570484  1
  Ti  Ti79  1  0.866318  0.599703  0.579609  1
  Ti  Ti80  1  0.381696  0.359388  0.490410  1
  Ti  Ti81  1  0.901046  0.350342  0.495250  1
  Ti  Ti82  1  0.414230  0.851791  0.483821  1
  Ti  Ti83  1  0.925019  0.915114  0.484752  1
  Ti  Ti84  1  0.118304  0.140612  0.490410  1
  Ti  Ti85  1  0.598954  0.149657  0.495250  1
  Ti  Ti86  1  0.085770  0.648209  0.483821  1
  Ti  Ti87  1  0.574981  0.584886  0.484752  1
  Ti  Ti88  1  0.125085  0.874936  0.737802  1
  Ti  Ti89  1  0.624886  0.875239  0.737631  1
  Ti  Ti90  1  0.374900  0.625033  0.737802  1
  Ti  Ti91  1  0.875107  0.624741  0.737634  1
  Ti  Ti92  1  0.125011  0.374885  0.737672  1
  Ti  Ti93  1  0.625143  0.374851  0.737640  1
  Ti  Ti94  1  0.374980  0.125096  0.737670  1
  Ti  Ti95  1  0.874851  0.125130  0.737640  1
  Mo  Mo96  1  0.750000  0.750000  0.450922  1
