# generated using pymatgen
data_Ti96Al
_symmetry_space_group_name_H-M   'P 1'
_cell_length_a   9.51302000
_cell_length_b   9.35086000
_cell_length_c   18.54723000
_cell_angle_alpha   90.00000000
_cell_angle_beta   90.00000000
_cell_angle_gamma   90.00000000
_symmetry_Int_Tables_number   1
_chemical_formula_structural   Ti96Al
_chemical_formula_sum   'Ti96 Al1'
_cell_volume   1649.86732743
_cell_formula_units_Z   1
loop_
 _symmetry_equiv_pos_site_id
 _symmetry_equiv_pos_as_xyz
  1  'x, y, z'
loop_
 _atom_site_type_symbol
 _atom_site_label
 _atom_site_symmetry_multiplicity
 _atom_site_fract_x
 _atom_site_fract_y
 _atom_site_fract_z
 _atom_site_occupancy
  Ti  Ti0  1  0.137492  0.370820  0.405587  1
  Ti  Ti1  1  0.665324  0.358708  0.384811  1
  Ti  Ti2  1  0.146160  0.864854  0.402186  1
  Ti  Ti3  1  0.657271  0.859387  0.419167  1
  Ti  Ti4  1  0.164070  0.371126  0.237698  1
  Ti  Ti5  1  0.654408  0.372098  0.234884  1
  Ti  Ti6  1  0.161504  0.874151  0.234895  1
  Ti  Ti7  1  0.662013  0.872421  0.233806  1
  Ti  Ti8  1  0.166666  0.375000  0.077689  1
  Ti  Ti9  1  0.666666  0.375000  0.077689  1
  Ti  Ti10  1  0.166666  0.875000  0.077689  1
  Ti  Ti11  1  0.666666  0.875000  0.077689  1
  Ti  Ti12  1  0.404476  0.396373  0.321797  1
  Ti  Ti13  1  0.913511  0.381541  0.314695  1
  Ti  Ti14  1  0.399380  0.872817  0.318308  1
  Ti  Ti15  1  0.900807  0.876735  0.317192  1
  Ti  Ti16  1  0.416667  0.375000  0.155379  1
  Ti  Ti17  1  0.916667  0.375000  0.155379  1
  Ti  Ti18  1  0.416667  0.875000  0.155379  1
  Ti  Ti19  1  0.916667  0.875000  0.155379  1
  Ti  Ti20  1  0.416667  0.375000  0.000000  1
  Ti  Ti21  1  0.916667  0.375000  0.000000  1
  Ti  Ti22  1  0.416667  0.875000  0.000000  1
  Ti  Ti23  1  0.916667  0.875000  0.000000  1
  Ti  Ti24  1  0.086489  0.118459  0.314694  1
  Ti  Ti25  1  0.595524  0.103627  0.321796  1
  Ti  Ti26  1  0.099193  0.623265  0.317191  1
  Ti  Ti27  1  0.600620  0.627183  0.318307  1
  Ti  Ti28  1  0.083333  0.125000  0.155379  1
  Ti  Ti29  1  0.583333  0.125000  0.155379  1
  Ti  Ti30  1  0.083333  0.625000  0.155379  1
  Ti  Ti31  1  0.583333  0.625000  0.155379  1
  Ti  Ti32  1  0.083333  0.125000  0.000000  1
  Ti  Ti33  1  0.583333  0.125000  0.000000  1
  Ti  Ti34  1  0.083333  0.625000  0.000000  1
  Ti  Ti35  1  0.583333  0.625000  0.000000  1
  Ti  Ti36  1  0.334675  0.141292  0.384811  1
  Ti  Ti37  1  0.862507  0.129180  0.405587  1
  Ti  Ti38  1  0.342728  0.640613  0.419167  1
  Ti  Ti39  1  0.853839  0.635146  0.402186  1
  Ti  Ti40  1  0.345591  0.127902  0.234884  1
  Ti  Ti41  1  0.835929  0.128874  0.237698  1
  Ti  Ti42  1  0.337986  0.627579  0.233806  1
  Ti  Ti43  1  0.838495  0.625849  0.234895  1
  Ti  Ti44  1  0.333333  0.125000  0.077689  1
  Ti  Ti45  1  0.833333  0.125000  0.077689  1
  Ti  Ti46  1  0.333333  0.625000  0.077689  1
  Ti  Ti47  1  0.833333  0.625000  0.077689  1
  Ti  Ti48  1  0.375000  0.375000  0.823738  1
  Ti  Ti49  1  0.875000  0.375000  0.823738  1
  Ti  Ti50  1  0.375000  0.875000  0.823738  1
  Ti  Ti51  1  0.875000  0.875000  0.823738  1
  Ti  Ti52  1  0.125000  0.125000  0.823738  1
  Ti  Ti53  1  0.625000  0.125000  0.823738  1
  Ti  Ti54  1  0.125000  0.625000  0.823738  1
  Ti  Ti55  1  0.625000  0.625000  0.823738  1
  Ti  Ti56  1  0.125000  0.375000  0.910084  1
  Ti  Ti57  1  0.625000  0.375000  0.910084  1
  Ti  Ti58  1  0.125000  0.875000  0.910084  1
  Ti  Ti59  1  0.625000  0.875000  0.910084  1
  Ti  Ti60  1  0.375000  0.125000  0.910084  1
  Ti  Ti61  1  0.875000  0.125000  0.910084  1
  Ti  Ti62  1  0.375000  0.625000  0.910084  1
  Ti  Ti63  1  0.875000  0.625000  0.910084  1
  Ti  Ti64  1  0.377855  0.367093  0.672361  1
  Ti  Ti65  1  0.871862  0.401223  0.648323  1
  Ti  Ti66  1  0.377934  0.884652  0.668008  1
  Ti  Ti67  1  0.911549  0.880929  0.648675  1
  Ti  Ti68  1  0.128138  0.098777  0.648323  1
  Ti  Ti69  1  0.622145  0.132907  0.672361  1
  Ti  Ti70  1  0.088451  0.619071  0.648675  1
  Ti  Ti71  1  0.622066  0.615348  0.668008  1
  Ti  Ti72  1  0.123092  0.347752  0.572751  1
  Ti  Ti73  1  0.619943  0.366045  0.580035  1
  Ti  Ti74  1  0.183420  0.843469  0.562828  1
  Ti  Ti75  1  0.683120  0.940058  0.575214  1
  Ti  Ti76  1  0.380057  0.133955  0.580035  1
  Ti  Ti77  1  0.876908  0.152248  0.572751  1
  Ti  Ti78  1  0.316880  0.559942  0.575214  1
  Ti  Ti79  1  0.816580  0.656531  0.562828  1
  Ti  Ti80  1  0.392781  0.356891  0.477760  1
  Ti  Ti81  1  0.872382  0.394334  0.491430  1
  Ti  Ti82  1  0.394587  0.926929  0.469483  1
  Ti  Ti83  1  0.919628  0.890039  0.492259  1
  Ti  Ti84  1  0.127618  0.105666  0.491430  1
  Ti  Ti85  1  0.607219  0.143109  0.477760  1
  Ti  Ti86  1  0.080372  0.609961  0.492259  1
  Ti  Ti87  1  0.605413  0.573071  0.469483  1
  Ti  Ti88  1  0.125000  0.875000  0.737395  1
  Ti  Ti89  1  0.625000  0.875000  0.737395  1
  Ti  Ti90  1  0.375000  0.625000  0.737395  1
  Ti  Ti91  1  0.875000  0.625000  0.737395  1
  Ti  Ti92  1  0.125000  0.375000  0.737395  1
  Ti  Ti93  1  0.625000  0.375000  0.737395  1
  Ti  Ti94  1  0.375000  0.125000  0.737395  1
  Ti  Ti95  1  0.875000  0.125000  0.737395  1
  Al  Al96  1  0.500000  0.750000  0.559567  1
