# generated using pymatgen
data_ZrTi96
_symmetry_space_group_name_H-M   'P 1'
_cell_length_a   9.51302000
_cell_length_b   9.35086000
_cell_length_c   18.54723000
_cell_angle_alpha   90.00000000
_cell_angle_beta   90.00000000
_cell_angle_gamma   90.00000000
_symmetry_Int_Tables_number   1
_chemical_formula_structural   ZrTi96
_chemical_formula_sum   'Zr1 Ti96'
_cell_volume   1649.86732743
_cell_formula_units_Z   1
loop_
 _symmetry_equiv_pos_site_id
 _symmetry_equiv_pos_as_xyz
  1  'x, y, z'
loop_
 _atom_site_type_symbol
 _atom_site_label
 _atom_site_symmetry_multiplicity
 _atom_site_fract_x
 _atom_site_fract_y
 _atom_site_fract_z
 _atom_site_occupancy
  Ti  Ti0  1  0.144256  0.376883  0.398269  1
  Ti  Ti1  1  0.651802  0.363532  0.392808  1
  Ti  Ti2  1  0.167523  0.882165  0.400244  1
  Ti  Ti3  1  0.645152  0.918662  0.392190  1
  Ti  Ti4  1  0.165909  0.376774  0.234966  1
  Ti  Ti5  1  0.661078  0.382722  0.235118  1
  Ti  Ti6  1  0.156626  0.874279  0.235632  1
  Ti  Ti7  1  0.658979  0.872843  0.235391  1
  Ti  Ti8  1  0.166666  0.375000  0.077689  1
  Ti  Ti9  1  0.666666  0.375000  0.077689  1
  Ti  Ti10  1  0.166666  0.875000  0.077689  1
  Ti  Ti11  1  0.666666  0.875000  0.077689  1
  Ti  Ti12  1  0.407855  0.379890  0.317904  1
  Ti  Ti13  1  0.914934  0.364249  0.306596  1
  Ti  Ti14  1  0.406781  0.874794  0.315545  1
  Ti  Ti15  1  0.903942  0.857935  0.329053  1
  Ti  Ti16  1  0.416667  0.375000  0.155379  1
  Ti  Ti17  1  0.916667  0.375000  0.155379  1
  Ti  Ti18  1  0.416667  0.875000  0.155379  1
  Ti  Ti19  1  0.916667  0.875000  0.155379  1
  Ti  Ti20  1  0.416667  0.375000  0.000000  1
  Ti  Ti21  1  0.916667  0.375000  0.000000  1
  Ti  Ti22  1  0.416667  0.875000  0.000000  1
  Ti  Ti23  1  0.916667  0.875000  0.000000  1
  Ti  Ti24  1  0.092145  0.120110  0.317903  1
  Ti  Ti25  1  0.585066  0.135751  0.306595  1
  Ti  Ti26  1  0.093219  0.625206  0.315544  1
  Ti  Ti27  1  0.596058  0.642065  0.329052  1
  Ti  Ti28  1  0.083333  0.125000  0.155379  1
  Ti  Ti29  1  0.583333  0.125000  0.155379  1
  Ti  Ti30  1  0.083333  0.625000  0.155379  1
  Ti  Ti31  1  0.583333  0.625000  0.155379  1
  Ti  Ti32  1  0.083333  0.125000  0.000000  1
  Ti  Ti33  1  0.583333  0.125000  0.000000  1
  Ti  Ti34  1  0.083333  0.625000  0.000000  1
  Ti  Ti35  1  0.583333  0.625000  0.000000  1
  Ti  Ti36  1  0.355743  0.123117  0.398269  1
  Ti  Ti37  1  0.848197  0.136468  0.392808  1
  Ti  Ti38  1  0.332476  0.617835  0.400244  1
  Ti  Ti39  1  0.854847  0.581338  0.392190  1
  Ti  Ti40  1  0.334090  0.123226  0.234966  1
  Ti  Ti41  1  0.838921  0.117278  0.235118  1
  Ti  Ti42  1  0.343373  0.625721  0.235632  1
  Ti  Ti43  1  0.841020  0.627157  0.235391  1
  Ti  Ti44  1  0.333333  0.125000  0.077689  1
  Ti  Ti45  1  0.833333  0.125000  0.077689  1
  Ti  Ti46  1  0.333333  0.625000  0.077689  1
  Ti  Ti47  1  0.833333  0.625000  0.077689  1
  Ti  Ti48  1  0.375000  0.375000  0.823738  1
  Ti  Ti49  1  0.875000  0.375000  0.823738  1
  Ti  Ti50  1  0.375000  0.875000  0.823738  1
  Ti  Ti51  1  0.875000  0.875000  0.823738  1
  Ti  Ti52  1  0.125000  0.125000  0.823738  1
  Ti  Ti53  1  0.625000  0.125000  0.823738  1
  Ti  Ti54  1  0.125000  0.625000  0.823738  1
  Ti  Ti55  1  0.625000  0.625000  0.823738  1
  Ti  Ti56  1  0.125000  0.375000  0.910084  1
  Ti  Ti57  1  0.625000  0.375000  0.910084  1
  Ti  Ti58  1  0.125000  0.875000  0.910084  1
  Ti  Ti59  1  0.625000  0.875000  0.910084  1
  Ti  Ti60  1  0.375000  0.125000  0.910084  1
  Ti  Ti61  1  0.875000  0.125000  0.910084  1
  Ti  Ti62  1  0.375000  0.625000  0.910084  1
  Ti  Ti63  1  0.875000  0.625000  0.910084  1
  Ti  Ti64  1  0.395010  0.375224  0.643020  1
  Ti  Ti65  1  0.889271  0.360133  0.668187  1
  Ti  Ti66  1  0.379190  0.862303  0.667146  1
  Ti  Ti67  1  0.890607  0.860424  0.645773  1
  Ti  Ti68  1  0.104990  0.124776  0.643020  1
  Ti  Ti69  1  0.610729  0.139867  0.668187  1
  Ti  Ti70  1  0.120810  0.637697  0.667146  1
  Ti  Ti71  1  0.609393  0.639576  0.645773  1
  Ti  Ti72  1  0.137211  0.391790  0.575675  1
  Ti  Ti73  1  0.657692  0.375360  0.579964  1
  Ti  Ti74  1  0.159978  0.872525  0.567755  1
  Ti  Ti75  1  0.607149  0.918260  0.585205  1
  Ti  Ti76  1  0.362789  0.108210  0.575675  1
  Ti  Ti77  1  0.842308  0.124640  0.579964  1
  Ti  Ti78  1  0.340022  0.627475  0.567755  1
  Ti  Ti79  1  0.892851  0.581740  0.585205  1
  Ti  Ti80  1  0.374552  0.357610  0.487760  1
  Ti  Ti81  1  0.902918  0.351635  0.490901  1
  Ti  Ti82  1  0.418055  0.854977  0.477353  1
  Ti  Ti83  1  -0.059299  -0.067647  0.483002  1
  Ti  Ti84  1  0.125448  0.142390  0.487760  1
  Ti  Ti85  1  0.597082  0.148365  0.490901  1
  Ti  Ti86  1  0.081945  0.645023  0.477353  1
  Ti  Ti87  1  0.559299  0.567647  0.483002  1
  Ti  Ti88  1  0.125000  0.875000  0.737395  1
  Ti  Ti89  1  0.625000  0.875000  0.737395  1
  Ti  Ti90  1  0.375000  0.625000  0.737395  1
  Ti  Ti91  1  0.875000  0.625000  0.737395  1
  Ti  Ti92  1  0.125000  0.375000  0.737395  1
  Ti  Ti93  1  0.625000  0.375000  0.737395  1
  Ti  Ti94  1  0.375000  0.125000  0.737395  1
  Ti  Ti95  1  0.875000  0.125000  0.737395  1
  Zr  Zr96  1  0.750000  0.750000  0.497678  1
