# generated using pymatgen
data_Ti
_symmetry_space_group_name_H-M   'P 1'
_cell_length_a   9.51302000
_cell_length_b   9.35086000
_cell_length_c   18.54723000
_cell_angle_alpha   90.00000000
_cell_angle_beta   90.00000000
_cell_angle_gamma   90.00000000
_symmetry_Int_Tables_number   1
_chemical_formula_structural   Ti
_chemical_formula_sum   Ti97
_cell_volume   1649.86732743
_cell_formula_units_Z   97
loop_
 _symmetry_equiv_pos_site_id
 _symmetry_equiv_pos_as_xyz
  1  'x, y, z'
loop_
 _atom_site_type_symbol
 _atom_site_label
 _atom_site_symmetry_multiplicity
 _atom_site_fract_x
 _atom_site_fract_y
 _atom_site_fract_z
 _atom_site_occupancy
  Ti  Ti0  1  0.148319  0.380173  0.405380  1
  Ti  Ti1  1  0.656769  0.338491  0.415188  1
  Ti  Ti2  1  0.133776  0.857809  0.411354  1
  Ti  Ti3  1  0.667980  0.871400  0.406030  1
  Ti  Ti4  1  0.150187  0.368095  0.239263  1
  Ti  Ti5  1  0.657975  0.364513  0.233792  1
  Ti  Ti6  1  0.164163  0.867323  0.233918  1
  Ti  Ti7  1  0.670986  0.895411  0.235339  1
  Ti  Ti8  1  0.166678  0.375085  0.077345  1
  Ti  Ti9  1  0.666713  0.375009  0.077361  1
  Ti  Ti10  1  0.166706  0.875029  0.077487  1
  Ti  Ti11  1  0.666543  0.874886  0.077567  1
  Ti  Ti12  1  0.406606  0.375713  0.324578  1
  Ti  Ti13  1  0.896338  0.372878  0.324326  1
  Ti  Ti14  1  0.355829  0.940517  0.335891  1
  Ti  Ti15  1  0.913984  0.876848  0.315794  1
  Ti  Ti16  1  0.416799  0.375127  0.154926  1
  Ti  Ti17  1  0.916841  0.374785  0.154837  1
  Ti  Ti18  1  0.416539  0.874977  0.155487  1
  Ti  Ti19  1  0.916734  0.875010  0.154870  1
  Ti  Ti20  1  0.416682  0.375059  -0.000151  1
  Ti  Ti21  1  0.916643  0.375000  -0.000228  1
  Ti  Ti22  1  0.416668  0.874956  0.000001  1
  Ti  Ti23  1  0.916645  0.874969  -0.000176  1
  Ti  Ti24  1  0.103662  0.127124  0.324324  1
  Ti  Ti25  1  0.593394  0.124288  0.324577  1
  Ti  Ti26  1  0.086016  0.623155  0.315793  1
  Ti  Ti27  1  0.644171  0.559484  0.335890  1
  Ti  Ti28  1  0.083157  0.125250  0.154834  1
  Ti  Ti29  1  0.583200  0.124902  0.154927  1
  Ti  Ti30  1  0.083266  0.625021  0.154870  1
  Ti  Ti31  1  0.583463  0.625024  0.155487  1
  Ti  Ti32  1  0.083358  0.125009  -0.000228  1
  Ti  Ti33  1  0.583320  0.124957  -0.000149  1
  Ti  Ti34  1  0.083357  0.625037  -0.000175  1
  Ti  Ti35  1  0.583335  0.625038  0.000000  1
  Ti  Ti36  1  0.343230  0.161509  0.415188  1
  Ti  Ti37  1  0.851680  0.119828  0.405381  1
  Ti  Ti38  1  0.332019  0.628600  0.406030  1
  Ti  Ti39  1  0.866223  0.642191  0.411354  1
  Ti  Ti40  1  0.342025  0.135492  0.233791  1
  Ti  Ti41  1  0.849813  0.131911  0.239263  1
  Ti  Ti42  1  0.329012  0.604594  0.235340  1
  Ti  Ti43  1  0.835836  0.632684  0.233918  1
  Ti  Ti44  1  0.333287  0.125014  0.077361  1
  Ti  Ti45  1  0.833322  0.124939  0.077345  1
  Ti  Ti46  1  0.333455  0.625128  0.077565  1
  Ti  Ti47  1  0.833294  0.624989  0.077487  1
  Ti  Ti48  1  0.375059  0.375098  0.823764  1
  Ti  Ti49  1  0.874906  0.374949  0.823740  1
  Ti  Ti50  1  0.375073  0.874984  0.823674  1
  Ti  Ti51  1  0.874873  0.874958  0.823780  1
  Ti  Ti52  1  0.125092  0.125030  0.823739  1
  Ti  Ti53  1  0.624951  0.124899  0.823765  1
  Ti  Ti54  1  0.125132  0.625028  0.823780  1
  Ti  Ti55  1  0.624929  0.625000  0.823675  1
  Ti  Ti56  1  0.125064  0.375090  0.910024  1
  Ti  Ti57  1  0.624978  0.375109  0.910086  1
  Ti  Ti58  1  0.125127  0.874956  0.910075  1
  Ti  Ti59  1  0.624915  0.874882  0.910175  1
  Ti  Ti60  1  0.375026  0.124881  0.910089  1
  Ti  Ti61  1  0.874943  0.124905  0.910025  1
  Ti  Ti62  1  0.375088  0.625092  0.910174  1
  Ti  Ti63  1  0.874880  0.625026  0.910076  1
  Ti  Ti64  1  0.396644  0.385378  0.654841  1
  Ti  Ti65  1  0.897509  0.378466  0.652266  1
  Ti  Ti66  1  0.398328  0.885443  0.648842  1
  Ti  Ti67  1  0.891188  0.883703  0.658881  1
  Ti  Ti68  1  0.102490  0.121529  0.652266  1
  Ti  Ti69  1  0.603355  0.114616  0.654842  1
  Ti  Ti70  1  0.108808  0.616290  0.658881  1
  Ti  Ti71  1  0.601672  0.614553  0.648843  1
  Ti  Ti72  1  0.153131  0.369197  0.572445  1
  Ti  Ti73  1  0.647970  0.356115  0.574965  1
  Ti  Ti74  1  0.144038  0.866993  0.579692  1
  Ti  Ti75  1  0.654384  0.865468  0.572922  1
  Ti  Ti76  1  0.352029  0.143883  0.574965  1
  Ti  Ti77  1  0.846868  0.130801  0.572445  1
  Ti  Ti78  1  0.345616  0.634530  0.572921  1
  Ti  Ti79  1  0.855962  0.633005  0.579693  1
  Ti  Ti80  1  0.406044  0.397306  0.491687  1
  Ti  Ti81  1  0.903372  0.375453  0.489997  1
  Ti  Ti82  1  0.377718  0.899121  0.490464  1
  Ti  Ti83  1  0.906320  0.883690  0.496306  1
  Ti  Ti84  1  0.096627  0.124547  0.489997  1
  Ti  Ti85  1  0.593956  0.102694  0.491687  1
  Ti  Ti86  1  0.093679  0.616309  0.496306  1
  Ti  Ti87  1  0.622282  0.600879  0.490464  1
  Ti  Ti88  1  0.125184  0.875268  0.737640  1
  Ti  Ti89  1  0.624735  0.874803  0.737552  1
  Ti  Ti90  1  0.375256  0.625174  0.737545  1
  Ti  Ti91  1  0.874807  0.624703  0.737646  1
  Ti  Ti92  1  0.124891  0.374867  0.737556  1
  Ti  Ti93  1  0.625051  0.374876  0.737568  1
  Ti  Ti94  1  0.374940  0.125103  0.737567  1
  Ti  Ti95  1  0.875104  0.125114  0.737554  1
  Ti  Ti96  1  0.500000  0.750001  0.336799  1
