# generated using pymatgen
data_Ti
_symmetry_space_group_name_H-M   'P 1'
_cell_length_a   9.51302000
_cell_length_b   9.35086000
_cell_length_c   18.54723000
_cell_angle_alpha   90.00000000
_cell_angle_beta   90.00000000
_cell_angle_gamma   90.00000000
_symmetry_Int_Tables_number   1
_chemical_formula_structural   Ti
_chemical_formula_sum   Ti97
_cell_volume   1649.86732743
_cell_formula_units_Z   97
loop_
 _symmetry_equiv_pos_site_id
 _symmetry_equiv_pos_as_xyz
  1  'x, y, z'
loop_
 _atom_site_type_symbol
 _atom_site_label
 _atom_site_symmetry_multiplicity
 _atom_site_fract_x
 _atom_site_fract_y
 _atom_site_fract_z
 _atom_site_occupancy
  Ti  Ti0  1  0.144975  0.376700  0.404505  1
  Ti  Ti1  1  0.650507  0.363104  0.403947  1
  Ti  Ti2  1  0.166957  0.882588  0.401532  1
  Ti  Ti3  1  0.624684  0.937910  0.407701  1
  Ti  Ti4  1  0.160752  0.377348  0.236275  1
  Ti  Ti5  1  0.659300  0.376321  0.233869  1
  Ti  Ti6  1  0.161367  0.876425  0.236737  1
  Ti  Ti7  1  0.654869  0.882967  0.232426  1
  Ti  Ti8  1  0.166643  0.374992  0.077478  1
  Ti  Ti9  1  0.666701  0.375027  0.077508  1
  Ti  Ti10  1  0.166705  0.874981  0.077534  1
  Ti  Ti11  1  0.666692  0.874946  0.077707  1
  Ti  Ti12  1  0.399523  0.368557  0.320459  1
  Ti  Ti13  1  0.908160  0.364539  0.313185  1
  Ti  Ti14  1  0.412672  0.866901  0.318727  1
  Ti  Ti15  1  0.918872  0.890829  0.324913  1
  Ti  Ti16  1  0.416631  0.375024  0.155047  1
  Ti  Ti17  1  0.916779  0.374891  0.155057  1
  Ti  Ti18  1  0.416909  0.875023  0.155254  1
  Ti  Ti19  1  0.916637  0.874862  0.155278  1
  Ti  Ti20  1  0.416693  0.375020  -0.000092  1
  Ti  Ti21  1  0.916633  0.375016  -0.000073  1
  Ti  Ti22  1  0.416759  0.874981  -0.000019  1
  Ti  Ti23  1  0.916615  0.874957  -0.000006  1
  Ti  Ti24  1  0.100477  0.131444  0.320458  1
  Ti  Ti25  1  0.591840  0.135462  0.313183  1
  Ti  Ti26  1  0.087328  0.633100  0.318726  1
  Ti  Ti27  1  0.581128  0.609172  0.324912  1
  Ti  Ti28  1  0.083374  0.124996  0.155047  1
  Ti  Ti29  1  0.583216  0.125127  0.155055  1
  Ti  Ti30  1  0.083093  0.624987  0.155255  1
  Ti  Ti31  1  0.583362  0.625149  0.155277  1
  Ti  Ti32  1  0.083311  0.124989  -0.000092  1
  Ti  Ti33  1  0.583363  0.124993  -0.000072  1
  Ti  Ti34  1  0.083244  0.625020  -0.000019  1
  Ti  Ti35  1  0.583384  0.625046  -0.000007  1
  Ti  Ti36  1  0.355024  0.123300  0.404505  1
  Ti  Ti37  1  0.849492  0.136896  0.403947  1
  Ti  Ti38  1  0.333042  0.617412  0.401533  1
  Ti  Ti39  1  0.875315  0.562090  0.407701  1
  Ti  Ti40  1  0.339247  0.122655  0.236275  1
  Ti  Ti41  1  0.840699  0.123682  0.233868  1
  Ti  Ti42  1  0.338632  0.623578  0.236737  1
  Ti  Ti43  1  0.845130  0.617037  0.232427  1
  Ti  Ti44  1  0.333356  0.125022  0.077478  1
  Ti  Ti45  1  0.833299  0.124986  0.077508  1
  Ti  Ti46  1  0.333293  0.625032  0.077534  1
  Ti  Ti47  1  0.833308  0.625061  0.077707  1
  Ti  Ti48  1  0.374976  0.375010  0.823894  1
  Ti  Ti49  1  0.875005  0.374977  0.823849  1
  Ti  Ti50  1  0.375056  0.874990  0.823873  1
  Ti  Ti51  1  0.874971  0.874952  0.823775  1
  Ti  Ti52  1  0.125029  0.124982  0.823894  1
  Ti  Ti53  1  0.625001  0.125019  0.823850  1
  Ti  Ti54  1  0.124950  0.624999  0.823874  1
  Ti  Ti55  1  0.625036  0.625044  0.823777  1
  Ti  Ti56  1  0.124896  0.375063  0.910075  1
  Ti  Ti57  1  0.625063  0.375099  0.910047  1
  Ti  Ti58  1  0.124863  0.874937  0.910068  1
  Ti  Ti59  1  0.625080  0.874928  0.910029  1
  Ti  Ti60  1  0.375109  0.124938  0.910076  1
  Ti  Ti61  1  0.874941  0.124901  0.910048  1
  Ti  Ti62  1  0.375141  0.625057  0.910068  1
  Ti  Ti63  1  0.874924  0.625071  0.910028  1
  Ti  Ti64  1  0.395723  0.365531  0.647914  1
  Ti  Ti65  1  0.893280  0.363947  0.660667  1
  Ti  Ti66  1  0.384632  0.863815  0.662209  1
  Ti  Ti67  1  0.890077  0.864058  0.655381  1
  Ti  Ti68  1  0.104275  0.134464  0.647914  1
  Ti  Ti69  1  0.606718  0.136048  0.660667  1
  Ti  Ti70  1  0.115366  0.636178  0.662209  1
  Ti  Ti71  1  0.609921  0.635937  0.655381  1
  Ti  Ti72  1  0.148092  0.390834  0.573101  1
  Ti  Ti73  1  0.654684  0.387000  0.577045  1
  Ti  Ti74  1  0.147939  0.880220  0.575143  1
  Ti  Ti75  1  0.630145  0.892437  0.580587  1
  Ti  Ti76  1  0.351907  0.109164  0.573101  1
  Ti  Ti77  1  0.845316  0.112998  0.577045  1
  Ti  Ti78  1  0.352061  0.619778  0.575143  1
  Ti  Ti79  1  0.869854  0.607561  0.580587  1
  Ti  Ti80  1  0.391467  0.367376  0.490141  1
  Ti  Ti81  1  0.905429  0.353013  0.497997  1
  Ti  Ti82  1  0.400080  0.856150  0.488377  1
  Ti  Ti83  1  0.919397  0.893879  0.483705  1
  Ti  Ti84  1  0.108533  0.132623  0.490141  1
  Ti  Ti85  1  0.594571  0.146987  0.497997  1
  Ti  Ti86  1  0.099920  0.643850  0.488377  1
  Ti  Ti87  1  0.580603  0.606120  0.483705  1
  Ti  Ti88  1  0.125090  0.874950  0.737692  1
  Ti  Ti89  1  0.625010  0.875091  0.737534  1
  Ti  Ti90  1  0.374898  0.625023  0.737692  1
  Ti  Ti91  1  0.874985  0.624893  0.737536  1
  Ti  Ti92  1  0.125041  0.374913  0.737682  1
  Ti  Ti93  1  0.624978  0.374977  0.737666  1
  Ti  Ti94  1  0.374948  0.125065  0.737681  1
  Ti  Ti95  1  0.875013  0.125001  0.737666  1
  Ti  Ti96  1  0.750000  0.750000  0.411867  1
