# generated using pymatgen
data_Ti96Al
_symmetry_space_group_name_H-M   'P 1'
_cell_length_a   9.51302000
_cell_length_b   9.35086000
_cell_length_c   18.54723000
_cell_angle_alpha   90.00000000
_cell_angle_beta   90.00000000
_cell_angle_gamma   90.00000000
_symmetry_Int_Tables_number   1
_chemical_formula_structural   Ti96Al
_chemical_formula_sum   'Ti96 Al1'
_cell_volume   1649.86732743
_cell_formula_units_Z   1
loop_
 _symmetry_equiv_pos_site_id
 _symmetry_equiv_pos_as_xyz
  1  'x, y, z'
loop_
 _atom_site_type_symbol
 _atom_site_label
 _atom_site_symmetry_multiplicity
 _atom_site_fract_x
 _atom_site_fract_y
 _atom_site_fract_z
 _atom_site_occupancy
  Ti  Ti0  1  0.141972  0.368355  0.404764  1
  Ti  Ti1  1  0.647274  0.349541  0.403039  1
  Ti  Ti2  1  0.150667  0.859084  0.395571  1
  Ti  Ti3  1  0.677029  0.898080  0.391700  1
  Ti  Ti4  1  0.160966  0.375259  0.236120  1
  Ti  Ti5  1  0.662842  0.375812  0.233456  1
  Ti  Ti6  1  0.164290  0.875334  0.235301  1
  Ti  Ti7  1  0.657729  0.871022  0.237222  1
  Ti  Ti8  1  0.166663  0.375002  0.077688  1
  Ti  Ti9  1  0.666667  0.375001  0.077689  1
  Ti  Ti10  1  0.166676  0.874992  0.077702  1
  Ti  Ti11  1  0.666668  0.875010  0.077700  1
  Ti  Ti12  1  0.407306  0.373668  0.311105  1
  Ti  Ti13  1  0.900998  0.373166  0.318785  1
  Ti  Ti14  1  0.407669  0.890130  0.325828  1
  Ti  Ti15  1  0.915690  0.881267  0.312720  1
  Ti  Ti16  1  0.416670  0.374987  0.155327  1
  Ti  Ti17  1  0.916662  0.374978  0.155331  1
  Ti  Ti18  1  0.416663  0.875019  0.155367  1
  Ti  Ti19  1  0.916695  0.874980  0.155341  1
  Ti  Ti20  1  0.416668  0.374999  0.000002  1
  Ti  Ti21  1  0.916664  0.375000  0.000001  1
  Ti  Ti22  1  0.416665  0.874997  0.000016  1
  Ti  Ti23  1  0.916673  0.874994  0.000008  1
  Ti  Ti24  1  0.099002  0.126834  0.318784  1
  Ti  Ti25  1  0.592694  0.126332  0.311104  1
  Ti  Ti26  1  0.084310  0.618733  0.312719  1
  Ti  Ti27  1  0.592331  0.609870  0.325827  1
  Ti  Ti28  1  0.083338  0.125024  0.155331  1
  Ti  Ti29  1  0.583330  0.125015  0.155326  1
  Ti  Ti30  1  0.083305  0.625022  0.155341  1
  Ti  Ti31  1  0.583337  0.624982  0.155367  1
  Ti  Ti32  1  0.083336  0.125001  0.000001  1
  Ti  Ti33  1  0.583332  0.125002  0.000002  1
  Ti  Ti34  1  0.083327  0.625006  0.000008  1
  Ti  Ti35  1  0.583335  0.625003  0.000017  1
  Ti  Ti36  1  0.352725  0.150459  0.403039  1
  Ti  Ti37  1  0.858027  0.131645  0.404764  1
  Ti  Ti38  1  0.322970  0.601920  0.391700  1
  Ti  Ti39  1  0.849332  0.640916  0.395571  1
  Ti  Ti40  1  0.337157  0.124188  0.233456  1
  Ti  Ti41  1  0.839033  0.124741  0.236120  1
  Ti  Ti42  1  0.342270  0.628978  0.237223  1
  Ti  Ti43  1  0.835709  0.624666  0.235301  1
  Ti  Ti44  1  0.333332  0.125000  0.077689  1
  Ti  Ti45  1  0.833336  0.124998  0.077688  1
  Ti  Ti46  1  0.333331  0.624990  0.077700  1
  Ti  Ti47  1  0.833323  0.625008  0.077702  1
  Ti  Ti48  1  0.375001  0.375004  0.823756  1
  Ti  Ti49  1  0.874997  0.374997  0.823755  1
  Ti  Ti50  1  0.374998  0.875005  0.823754  1
  Ti  Ti51  1  0.875000  0.874993  0.823755  1
  Ti  Ti52  1  0.125003  0.125004  0.823755  1
  Ti  Ti53  1  0.624999  0.124996  0.823756  1
  Ti  Ti54  1  0.125001  0.625007  0.823755  1
  Ti  Ti55  1  0.625003  0.624995  0.823754  1
  Ti  Ti56  1  0.124999  0.375003  0.910093  1
  Ti  Ti57  1  0.625001  0.375001  0.910093  1
  Ti  Ti58  1  0.125001  0.874999  0.910098  1
  Ti  Ti59  1  0.624997  0.874998  0.910098  1
  Ti  Ti60  1  0.375000  0.125000  0.910093  1
  Ti  Ti61  1  0.875002  0.124998  0.910093  1
  Ti  Ti62  1  0.375003  0.625001  0.910099  1
  Ti  Ti63  1  0.875000  0.625000  0.910098  1
  Ti  Ti64  1  0.392912  0.396628  0.655562  1
  Ti  Ti65  1  0.896731  0.373138  0.647054  1
  Ti  Ti66  1  0.387075  0.889836  0.648250  1
  Ti  Ti67  1  0.880189  0.883791  0.668591  1
  Ti  Ti68  1  0.103269  0.126862  0.647054  1
  Ti  Ti69  1  0.607088  0.103372  0.655562  1
  Ti  Ti70  1  0.119811  0.616209  0.668591  1
  Ti  Ti71  1  0.612925  0.610164  0.648250  1
  Ti  Ti72  1  0.153067  0.386964  0.567461  1
  Ti  Ti73  1  0.644186  0.336935  0.577504  1
  Ti  Ti74  1  0.120431  0.857158  0.584126  1
  Ti  Ti75  1  0.652773  0.857840  0.570387  1
  Ti  Ti76  1  0.355814  0.163065  0.577504  1
  Ti  Ti77  1  0.846933  0.113036  0.567461  1
  Ti  Ti78  1  0.347227  0.642160  0.570387  1
  Ti  Ti79  1  0.879569  0.642842  0.584126  1
  Ti  Ti80  1  0.411076  0.401264  0.488756  1
  Ti  Ti81  1  0.897719  0.371732  0.489848  1
  Ti  Ti82  1  0.331556  0.934235  0.498017  1
  Ti  Ti83  1  0.910358  0.878489  0.482635  1
  Ti  Ti84  1  0.102281  0.128268  0.489848  1
  Ti  Ti85  1  0.588924  0.098736  0.488756  1
  Ti  Ti86  1  0.089642  0.621511  0.482635  1
  Ti  Ti87  1  0.668444  0.565765  0.498017  1
  Ti  Ti88  1  0.124969  0.875015  0.737451  1
  Ti  Ti89  1  0.625036  0.874929  0.737469  1
  Ti  Ti90  1  0.374963  0.625069  0.737468  1
  Ti  Ti91  1  0.875030  0.624983  0.737451  1
  Ti  Ti92  1  0.124965  0.375009  0.737450  1
  Ti  Ti93  1  0.625036  0.374928  0.737453  1
  Ti  Ti94  1  0.374962  0.125070  0.737453  1
  Ti  Ti95  1  0.875035  0.124990  0.737450  1
  Al  Al96  1  0.500000  0.750000  0.458689  1
