# generated using pymatgen
data_ZrTi96
_symmetry_space_group_name_H-M   'P 1'
_cell_length_a   9.51302000
_cell_length_b   9.35086000
_cell_length_c   18.54723000
_cell_angle_alpha   90.00000000
_cell_angle_beta   90.00000000
_cell_angle_gamma   90.00000000
_symmetry_Int_Tables_number   1
_chemical_formula_structural   ZrTi96
_chemical_formula_sum   'Zr1 Ti96'
_cell_volume   1649.86732743
_cell_formula_units_Z   1
loop_
 _symmetry_equiv_pos_site_id
 _symmetry_equiv_pos_as_xyz
  1  'x, y, z'
loop_
 _atom_site_type_symbol
 _atom_site_label
 _atom_site_symmetry_multiplicity
 _atom_site_fract_x
 _atom_site_fract_y
 _atom_site_fract_z
 _atom_site_occupancy
  Ti  Ti0  1  0.147582  0.379797  0.403885  1
  Ti  Ti1  1  0.646004  0.332661  0.408172  1
  Ti  Ti2  1  0.129945  0.850798  0.415124  1
  Ti  Ti3  1  0.672329  0.878109  0.411548  1
  Ti  Ti4  1  0.150063  0.366199  0.240628  1
  Ti  Ti5  1  0.651105  0.362750  0.238417  1
  Ti  Ti6  1  0.159707  0.866868  0.231699  1
  Ti  Ti7  1  0.678891  0.894134  0.231119  1
  Ti  Ti8  1  0.166695  0.375108  0.077464  1
  Ti  Ti9  1  0.666739  0.374988  0.077386  1
  Ti  Ti10  1  0.166737  0.875004  0.077449  1
  Ti  Ti11  1  0.666594  0.874927  0.077497  1
  Ti  Ti12  1  0.411387  0.394336  0.324447  1
  Ti  Ti13  1  0.898045  0.375524  0.325678  1
  Ti  Ti14  1  0.334296  0.935408  0.335950  1
  Ti  Ti15  1  0.912335  0.875391  0.316713  1
  Ti  Ti16  1  0.416739  0.375245  0.154959  1
  Ti  Ti17  1  0.916805  0.374872  0.154971  1
  Ti  Ti18  1  0.416593  0.875011  0.155280  1
  Ti  Ti19  1  0.916701  0.875057  0.154900  1
  Ti  Ti20  1  0.416671  0.375043  -0.000129  1
  Ti  Ti21  1  0.916668  0.374985  -0.000156  1
  Ti  Ti22  1  0.416666  0.874972  -0.000058  1
  Ti  Ti23  1  0.916663  0.874983  -0.000159  1
  Ti  Ti24  1  0.101955  0.124477  0.325677  1
  Ti  Ti25  1  0.588613  0.105666  0.324446  1
  Ti  Ti26  1  0.087665  0.624610  0.316712  1
  Ti  Ti27  1  0.665704  0.564593  0.335949  1
  Ti  Ti28  1  0.083194  0.125152  0.154970  1
  Ti  Ti29  1  0.583260  0.124780  0.154962  1
  Ti  Ti30  1  0.083299  0.624969  0.154900  1
  Ti  Ti31  1  0.583408  0.624999  0.155279  1
  Ti  Ti32  1  0.083333  0.125016  -0.000156  1
  Ti  Ti33  1  0.583331  0.124964  -0.000128  1
  Ti  Ti34  1  0.083338  0.625022  -0.000159  1
  Ti  Ti35  1  0.583336  0.625026  -0.000060  1
  Ti  Ti36  1  0.353995  0.167340  0.408172  1
  Ti  Ti37  1  0.852417  0.120204  0.403885  1
  Ti  Ti38  1  0.327670  0.621891  0.411548  1
  Ti  Ti39  1  0.870054  0.649202  0.415124  1
  Ti  Ti40  1  0.348894  0.137255  0.238417  1
  Ti  Ti41  1  0.849937  0.133806  0.240628  1
  Ti  Ti42  1  0.321108  0.605870  0.231119  1
  Ti  Ti43  1  0.840292  0.633137  0.231699  1
  Ti  Ti44  1  0.333261  0.125030  0.077386  1
  Ti  Ti45  1  0.833304  0.124906  0.077465  1
  Ti  Ti46  1  0.333405  0.625088  0.077495  1
  Ti  Ti47  1  0.833263  0.625012  0.077448  1
  Ti  Ti48  1  0.375035  0.375087  0.823754  1
  Ti  Ti49  1  0.874933  0.374954  0.823731  1
  Ti  Ti50  1  0.375035  0.874987  0.823678  1
  Ti  Ti51  1  0.874925  0.874945  0.823716  1
  Ti  Ti52  1  0.125065  0.125031  0.823730  1
  Ti  Ti53  1  0.624971  0.124907  0.823755  1
  Ti  Ti54  1  0.125079  0.625047  0.823716  1
  Ti  Ti55  1  0.624967  0.625003  0.823678  1
  Ti  Ti56  1  0.125027  0.375083  0.910040  1
  Ti  Ti57  1  0.624998  0.375078  0.910085  1
  Ti  Ti58  1  0.125058  0.874964  0.910043  1
  Ti  Ti59  1  0.624957  0.874913  0.910119  1
  Ti  Ti60  1  0.375006  0.124910  0.910087  1
  Ti  Ti61  1  0.874980  0.124908  0.910041  1
  Ti  Ti62  1  0.375044  0.625070  0.910118  1
  Ti  Ti63  1  0.874948  0.625025  0.910042  1
  Ti  Ti64  1  0.394919  0.386217  0.654478  1
  Ti  Ti65  1  0.897847  0.380280  0.653932  1
  Ti  Ti66  1  0.397616  0.886392  0.651279  1
  Ti  Ti67  1  0.888965  0.885734  0.660118  1
  Ti  Ti68  1  0.102152  0.119717  0.653932  1
  Ti  Ti69  1  0.605079  0.113779  0.654478  1
  Ti  Ti70  1  0.111032  0.614262  0.660118  1
  Ti  Ti71  1  0.602384  0.613604  0.651279  1
  Ti  Ti72  1  0.149387  0.366198  0.573822  1
  Ti  Ti73  1  0.651021  0.356980  0.576734  1
  Ti  Ti74  1  0.142908  0.866399  0.581586  1
  Ti  Ti75  1  0.651141  0.861692  0.573123  1
  Ti  Ti76  1  0.348979  0.143018  0.576734  1
  Ti  Ti77  1  0.850613  0.133801  0.573822  1
  Ti  Ti78  1  0.348858  0.638306  0.573123  1
  Ti  Ti79  1  0.857092  0.633600  0.581586  1
  Ti  Ti80  1  0.402726  0.391024  0.495920  1
  Ti  Ti81  1  0.896785  0.372493  0.486428  1
  Ti  Ti82  1  0.377639  0.907352  0.490550  1
  Ti  Ti83  1  0.908312  0.889733  0.499369  1
  Ti  Ti84  1  0.103215  0.127507  0.486428  1
  Ti  Ti85  1  0.597274  0.108976  0.495920  1
  Ti  Ti86  1  0.091688  0.610266  0.499369  1
  Ti  Ti87  1  0.622361  0.592648  0.490550  1
  Ti  Ti88  1  0.125130  0.875208  0.737535  1
  Ti  Ti89  1  0.624869  0.874835  0.737518  1
  Ti  Ti90  1  0.375124  0.625147  0.737513  1
  Ti  Ti91  1  0.874865  0.624774  0.737540  1
  Ti  Ti92  1  0.124946  0.374996  0.737516  1
  Ti  Ti93  1  0.625010  0.374915  0.737573  1
  Ti  Ti94  1  0.374981  0.125063  0.737573  1
  Ti  Ti95  1  0.875050  0.124988  0.737516  1
  Zr  Zr96  1  0.500000  0.750000  0.336036  1
