# generated using pymatgen
data_ZrTi96
_symmetry_space_group_name_H-M   'P 1'
_cell_length_a   9.51302000
_cell_length_b   9.35086000
_cell_length_c   18.54723000
_cell_angle_alpha   90.00000000
_cell_angle_beta   90.00000000
_cell_angle_gamma   90.00000000
_symmetry_Int_Tables_number   1
_chemical_formula_structural   ZrTi96
_chemical_formula_sum   'Zr1 Ti96'
_cell_volume   1649.86732743
_cell_formula_units_Z   1
loop_
 _symmetry_equiv_pos_site_id
 _symmetry_equiv_pos_as_xyz
  1  'x, y, z'
loop_
 _atom_site_type_symbol
 _atom_site_label
 _atom_site_symmetry_multiplicity
 _atom_site_fract_x
 _atom_site_fract_y
 _atom_site_fract_z
 _atom_site_occupancy
  Ti  Ti0  1  0.147195  0.371723  0.402083  1
  Ti  Ti1  1  0.656399  0.355242  0.391215  1
  Ti  Ti2  1  0.150076  0.863645  0.396783  1
  Ti  Ti3  1  0.664261  0.870888  0.405451  1
  Ti  Ti4  1  0.160315  0.370310  0.236964  1
  Ti  Ti5  1  0.659226  0.373332  0.234089  1
  Ti  Ti6  1  0.161723  0.874300  0.234900  1
  Ti  Ti7  1  0.662667  0.872595  0.234514  1
  Ti  Ti8  1  0.166661  0.375023  0.077675  1
  Ti  Ti9  1  0.666669  0.375012  0.077668  1
  Ti  Ti10  1  0.166681  0.875016  0.077652  1
  Ti  Ti11  1  0.666666  0.874998  0.077637  1
  Ti  Ti12  1  0.407333  0.384507  0.315192  1
  Ti  Ti13  1  0.907511  0.380731  0.319646  1
  Ti  Ti14  1  0.405599  0.877079  0.316816  1
  Ti  Ti15  1  0.906952  0.878216  0.315381  1
  Ti  Ti16  1  0.416662  0.375023  0.155286  1
  Ti  Ti17  1  0.916643  0.375002  0.155318  1
  Ti  Ti18  1  0.416680  0.875020  0.155277  1
  Ti  Ti19  1  0.916696  0.875000  0.155249  1
  Ti  Ti20  1  0.416663  0.375033  -0.000008  1
  Ti  Ti21  1  0.916636  0.375017  0.000005  1
  Ti  Ti22  1  0.416662  0.875001  -0.000060  1
  Ti  Ti23  1  0.916647  0.874996  -0.000040  1
  Ti  Ti24  1  0.092489  0.119269  0.319646  1
  Ti  Ti25  1  0.592667  0.115493  0.315191  1
  Ti  Ti26  1  0.093048  0.621785  0.315380  1
  Ti  Ti27  1  0.594401  0.622922  0.316815  1
  Ti  Ti28  1  0.083357  0.125004  0.155318  1
  Ti  Ti29  1  0.583338  0.124984  0.155286  1
  Ti  Ti30  1  0.083304  0.625011  0.155249  1
  Ti  Ti31  1  0.583320  0.624990  0.155278  1
  Ti  Ti32  1  0.083365  0.124988  0.000005  1
  Ti  Ti33  1  0.583338  0.124974  -0.000009  1
  Ti  Ti34  1  0.083353  0.625017  -0.000039  1
  Ti  Ti35  1  0.583340  0.625012  -0.000059  1
  Ti  Ti36  1  0.343600  0.144758  0.391215  1
  Ti  Ti37  1  0.852804  0.128277  0.402083  1
  Ti  Ti38  1  0.335738  0.629112  0.405451  1
  Ti  Ti39  1  0.849923  0.636355  0.396783  1
  Ti  Ti40  1  0.340773  0.126670  0.234089  1
  Ti  Ti41  1  0.839684  0.129691  0.236964  1
  Ti  Ti42  1  0.337332  0.627407  0.234514  1
  Ti  Ti43  1  0.838276  0.625702  0.234900  1
  Ti  Ti44  1  0.333330  0.124995  0.077668  1
  Ti  Ti45  1  0.833338  0.124984  0.077674  1
  Ti  Ti46  1  0.333333  0.625013  0.077638  1
  Ti  Ti47  1  0.833318  0.624994  0.077652  1
  Ti  Ti48  1  0.374985  0.374994  0.823922  1
  Ti  Ti49  1  0.874986  0.374902  0.823899  1
  Ti  Ti50  1  0.375031  0.875112  0.823814  1
  Ti  Ti51  1  0.875072  0.875010  0.823832  1
  Ti  Ti52  1  0.125023  0.125089  0.823897  1
  Ti  Ti53  1  0.625021  0.125004  0.823921  1
  Ti  Ti54  1  0.124927  0.624991  0.823834  1
  Ti  Ti55  1  0.624973  0.624879  0.823817  1
  Ti  Ti56  1  0.124972  0.375028  0.910156  1
  Ti  Ti57  1  0.625016  0.374984  0.910172  1
  Ti  Ti58  1  0.125023  0.875010  0.910103  1
  Ti  Ti59  1  0.625001  0.874999  0.910106  1
  Ti  Ti60  1  0.374986  0.125012  0.910171  1
  Ti  Ti61  1  0.875033  0.124969  0.910154  1
  Ti  Ti62  1  0.375002  0.625003  0.910107  1
  Ti  Ti63  1  0.874984  0.624993  0.910104  1
  Ti  Ti64  1  0.383470  0.372754  0.667204  1
  Ti  Ti65  1  0.882447  0.388047  0.648732  1
  Ti  Ti66  1  0.372232  0.891014  0.663416  1
  Ti  Ti67  1  0.902306  0.878488  0.654423  1
  Ti  Ti68  1  0.117551  0.111950  0.648732  1
  Ti  Ti69  1  0.616528  0.127242  0.667203  1
  Ti  Ti70  1  0.097692  0.621508  0.654424  1
  Ti  Ti71  1  0.627767  0.608980  0.663417  1
  Ti  Ti72  1  0.136277  0.361206  0.571589  1
  Ti  Ti73  1  0.634389  0.359466  0.577900  1
  Ti  Ti74  1  0.155752  0.854319  0.565615  1
  Ti  Ti75  1  0.680555  0.921342  0.572173  1
  Ti  Ti76  1  0.365611  0.140533  0.577899  1
  Ti  Ti77  1  0.863722  0.138794  0.571589  1
  Ti  Ti78  1  0.319444  0.578657  0.572174  1
  Ti  Ti79  1  0.844247  0.645680  0.565615  1
  Ti  Ti80  1  0.399639  0.369220  0.481886  1
  Ti  Ti81  1  0.885977  0.380725  0.489087  1
  Ti  Ti82  1  0.371593  0.930892  0.475076  1
  Ti  Ti83  1  0.916502  0.884885  0.483440  1
  Ti  Ti84  1  0.114023  0.119274  0.489087  1
  Ti  Ti85  1  0.600361  0.130780  0.481886  1
  Ti  Ti86  1  0.083498  0.615114  0.483440  1
  Ti  Ti87  1  0.628407  0.569107  0.475076  1
  Ti  Ti88  1  0.125385  0.875240  0.737646  1
  Ti  Ti89  1  0.625088  0.875156  0.737662  1
  Ti  Ti90  1  0.374902  0.624826  0.737666  1
  Ti  Ti91  1  0.874610  0.624745  0.737654  1
  Ti  Ti92  1  0.124851  0.374900  0.737658  1
  Ti  Ti93  1  0.625114  0.374724  0.737708  1
  Ti  Ti94  1  0.374876  0.125255  0.737705  1
  Ti  Ti95  1  0.875142  0.125081  0.737655  1
  Zr  Zr96  1  0.500000  0.749999  0.542433  1
