# generated using pymatgen
data_Ti96Nb
_symmetry_space_group_name_H-M   'P 1'
_cell_length_a   9.51302000
_cell_length_b   9.35086000
_cell_length_c   18.54723000
_cell_angle_alpha   90.00000000
_cell_angle_beta   90.00000000
_cell_angle_gamma   90.00000000
_symmetry_Int_Tables_number   1
_chemical_formula_structural   Ti96Nb
_chemical_formula_sum   'Ti96 Nb1'
_cell_volume   1649.86732743
_cell_formula_units_Z   1
loop_
 _symmetry_equiv_pos_site_id
 _symmetry_equiv_pos_as_xyz
  1  'x, y, z'
loop_
 _atom_site_type_symbol
 _atom_site_label
 _atom_site_symmetry_multiplicity
 _atom_site_fract_x
 _atom_site_fract_y
 _atom_site_fract_z
 _atom_site_occupancy
  Ti  Ti0  1  0.135242  0.362304  0.406125  1
  Ti  Ti1  1  0.647244  0.349213  0.406717  1
  Ti  Ti2  1  0.161423  0.855509  0.397370  1
  Ti  Ti3  1  0.682949  0.915772  0.399841  1
  Ti  Ti4  1  0.159236  0.378101  0.236572  1
  Ti  Ti5  1  0.665560  0.368861  0.229498  1
  Ti  Ti6  1  0.160373  0.873532  0.234162  1
  Ti  Ti7  1  0.655483  0.862463  0.243742  1
  Ti  Ti8  1  0.166676  0.374999  0.077649  1
  Ti  Ti9  1  0.666669  0.375004  0.077652  1
  Ti  Ti10  1  0.166684  0.874996  0.077664  1
  Ti  Ti11  1  0.666676  0.875011  0.077665  1
  Ti  Ti12  1  0.404026  0.368974  0.311931  1
  Ti  Ti13  1  0.897306  0.375597  0.318541  1
  Ti  Ti14  1  0.400078  0.908545  0.316474  1
  Ti  Ti15  1  0.917395  0.881286  0.316851  1
  Ti  Ti16  1  0.416663  0.374973  0.155305  1
  Ti  Ti17  1  0.916644  0.374990  0.155314  1
  Ti  Ti18  1  0.416651  0.875019  0.155337  1
  Ti  Ti19  1  0.916719  0.874983  0.155312  1
  Ti  Ti20  1  0.416668  0.374999  -0.000008  1
  Ti  Ti21  1  0.916663  0.375001  -0.000010  1
  Ti  Ti22  1  0.416668  0.874995  0.000005  1
  Ti  Ti23  1  0.916672  0.874995  -0.000005  1
  Ti  Ti24  1  0.102694  0.124403  0.318540  1
  Ti  Ti25  1  0.595974  0.131026  0.311930  1
  Ti  Ti26  1  0.082605  0.618714  0.316850  1
  Ti  Ti27  1  0.599922  0.591455  0.316473  1
  Ti  Ti28  1  0.083356  0.125014  0.155314  1
  Ti  Ti29  1  0.583337  0.125032  0.155305  1
  Ti  Ti30  1  0.083281  0.625020  0.155312  1
  Ti  Ti31  1  0.583349  0.624983  0.155338  1
  Ti  Ti32  1  0.083338  0.125000  -0.000010  1
  Ti  Ti33  1  0.583332  0.125002  -0.000008  1
  Ti  Ti34  1  0.083328  0.625006  -0.000005  1
  Ti  Ti35  1  0.583332  0.625005  0.000005  1
  Ti  Ti36  1  0.352755  0.150787  0.406717  1
  Ti  Ti37  1  0.864757  0.137696  0.406125  1
  Ti  Ti38  1  0.317050  0.584228  0.399841  1
  Ti  Ti39  1  0.838576  0.644491  0.397370  1
  Ti  Ti40  1  0.334439  0.131139  0.229498  1
  Ti  Ti41  1  0.840763  0.121899  0.236572  1
  Ti  Ti42  1  0.344516  0.637538  0.243742  1
  Ti  Ti43  1  0.839626  0.626468  0.234162  1
  Ti  Ti44  1  0.333330  0.124999  0.077652  1
  Ti  Ti45  1  0.833323  0.125004  0.077649  1
  Ti  Ti46  1  0.333323  0.624992  0.077665  1
  Ti  Ti47  1  0.833315  0.625006  0.077664  1
  Ti  Ti48  1  0.375005  0.375013  0.823782  1
  Ti  Ti49  1  0.874997  0.374993  0.823778  1
  Ti  Ti50  1  0.375002  0.874996  0.823774  1
  Ti  Ti51  1  0.874995  0.874981  0.823779  1
  Ti  Ti52  1  0.125003  0.125005  0.823778  1
  Ti  Ti53  1  0.624996  0.124985  0.823782  1
  Ti  Ti54  1  0.125006  0.625018  0.823779  1
  Ti  Ti55  1  0.624999  0.625002  0.823774  1
  Ti  Ti56  1  0.125000  0.375003  0.910095  1
  Ti  Ti57  1  0.625001  0.375003  0.910095  1
  Ti  Ti58  1  0.125002  0.874997  0.910097  1
  Ti  Ti59  1  0.624996  0.874992  0.910095  1
  Ti  Ti60  1  0.374999  0.124996  0.910095  1
  Ti  Ti61  1  0.875001  0.124996  0.910095  1
  Ti  Ti62  1  0.375004  0.625007  0.910095  1
  Ti  Ti63  1  0.874998  0.625002  0.910097  1
  Ti  Ti64  1  0.391323  0.394195  0.655613  1
  Ti  Ti65  1  0.899589  0.375581  0.649305  1
  Ti  Ti66  1  0.392025  0.884817  0.651120  1
  Ti  Ti67  1  0.882215  0.884979  0.664801  1
  Ti  Ti68  1  0.100410  0.124418  0.649305  1
  Ti  Ti69  1  0.608676  0.105804  0.655613  1
  Ti  Ti70  1  0.117785  0.615021  0.664801  1
  Ti  Ti71  1  0.607975  0.615183  0.651120  1
  Ti  Ti72  1  0.150469  0.380268  0.566128  1
  Ti  Ti73  1  0.648582  0.348052  0.581982  1
  Ti  Ti74  1  0.128944  0.858207  0.583414  1
  Ti  Ti75  1  0.651317  0.856871  0.567694  1
  Ti  Ti76  1  0.351418  0.151948  0.581982  1
  Ti  Ti77  1  0.849531  0.119732  0.566128  1
  Ti  Ti78  1  0.348683  0.643128  0.567694  1
  Ti  Ti79  1  0.871056  0.641792  0.583414  1
  Ti  Ti80  1  0.408774  0.384918  0.495098  1
  Ti  Ti81  1  0.893550  0.379587  0.490839  1
  Ti  Ti82  1  0.356544  0.921627  0.499174  1
  Ti  Ti83  1  0.914292  0.876798  0.484227  1
  Ti  Ti84  1  0.106450  0.120413  0.490839  1
  Ti  Ti85  1  0.591226  0.115082  0.495098  1
  Ti  Ti86  1  0.085708  0.623202  0.484227  1
  Ti  Ti87  1  0.643456  0.578373  0.499174  1
  Ti  Ti88  1  0.124983  0.875008  0.737472  1
  Ti  Ti89  1  0.624993  0.874923  0.737457  1
  Ti  Ti90  1  0.375006  0.625074  0.737456  1
  Ti  Ti91  1  0.875015  0.624989  0.737472  1
  Ti  Ti92  1  0.124976  0.375001  0.737466  1
  Ti  Ti93  1  0.625016  0.374955  0.737473  1
  Ti  Ti94  1  0.374982  0.125041  0.737473  1
  Ti  Ti95  1  0.875023  0.124996  0.737466  1
  Nb  Nb96  1  0.500000  0.750000  0.429332  1
