# generated using pymatgen
data_Ti96Sn
_symmetry_space_group_name_H-M   'P 1'
_cell_length_a   9.51302000
_cell_length_b   9.35086000
_cell_length_c   18.54723000
_cell_angle_alpha   90.00000000
_cell_angle_beta   90.00000000
_cell_angle_gamma   90.00000000
_symmetry_Int_Tables_number   1
_chemical_formula_structural   Ti96Sn
_chemical_formula_sum   'Ti96 Sn1'
_cell_volume   1649.86732743
_cell_formula_units_Z   1
loop_
 _symmetry_equiv_pos_site_id
 _symmetry_equiv_pos_as_xyz
  1  'x, y, z'
loop_
 _atom_site_type_symbol
 _atom_site_label
 _atom_site_symmetry_multiplicity
 _atom_site_fract_x
 _atom_site_fract_y
 _atom_site_fract_z
 _atom_site_occupancy
  Ti  Ti0  1  0.148032  0.377925  0.403600  1
  Ti  Ti1  1  0.644706  0.331987  0.408880  1
  Ti  Ti2  1  0.116787  0.852919  0.402156  1
  Ti  Ti3  1  0.691978  0.879049  0.392583  1
  Ti  Ti4  1  0.156230  0.366867  0.236703  1
  Ti  Ti5  1  0.659344  0.372716  0.234571  1
  Ti  Ti6  1  0.165813  0.871783  0.233956  1
  Ti  Ti7  1  0.662304  0.882547  0.234036  1
  Ti  Ti8  1  0.166621  0.374996  0.077524  1
  Ti  Ti9  1  0.666715  0.374962  0.077471  1
  Ti  Ti10  1  0.166807  0.874982  0.077519  1
  Ti  Ti11  1  0.666650  0.875072  0.077500  1
  Ti  Ti12  1  0.408745  0.382495  0.316338  1
  Ti  Ti13  1  0.896572  0.372837  0.322970  1
  Ti  Ti14  1  0.374023  0.913119  0.334392  1
  Ti  Ti15  1  0.917669  0.885580  0.307174  1
  Ti  Ti16  1  0.416716  0.374828  0.155072  1
  Ti  Ti17  1  0.916598  0.374864  0.155052  1
  Ti  Ti18  1  0.416612  0.874932  0.155322  1
  Ti  Ti19  1  0.916862  0.875263  0.154995  1
  Ti  Ti20  1  0.416669  0.375013  -0.000099  1
  Ti  Ti21  1  0.916635  0.374986  -0.000118  1
  Ti  Ti22  1  0.416697  0.874978  -0.000036  1
  Ti  Ti23  1  0.916684  0.875012  -0.000129  1
  Ti  Ti24  1  0.103428  0.127164  0.322968  1
  Ti  Ti25  1  0.591255  0.117506  0.316337  1
  Ti  Ti26  1  0.082331  0.614422  0.307174  1
  Ti  Ti27  1  0.625977  0.586882  0.334391  1
  Ti  Ti28  1  0.083402  0.125157  0.155050  1
  Ti  Ti29  1  0.583287  0.125195  0.155070  1
  Ti  Ti30  1  0.083136  0.624763  0.154997  1
  Ti  Ti31  1  0.583390  0.625081  0.155321  1
  Ti  Ti32  1  0.083368  0.125019  -0.000119  1
  Ti  Ti33  1  0.583332  0.124997  -0.000098  1
  Ti  Ti34  1  0.083316  0.625000  -0.000128  1
  Ti  Ti35  1  0.583306  0.625029  -0.000037  1
  Ti  Ti36  1  0.355293  0.168014  0.408880  1
  Ti  Ti37  1  0.851967  0.122075  0.403600  1
  Ti  Ti38  1  0.308021  0.620952  0.392583  1
  Ti  Ti39  1  0.883212  0.647081  0.402156  1
  Ti  Ti40  1  0.340656  0.127289  0.234571  1
  Ti  Ti41  1  0.843769  0.133138  0.236703  1
  Ti  Ti42  1  0.337695  0.617458  0.234036  1
  Ti  Ti43  1  0.834185  0.628223  0.233956  1
  Ti  Ti44  1  0.333285  0.125054  0.077471  1
  Ti  Ti45  1  0.833379  0.125019  0.077524  1
  Ti  Ti46  1  0.333349  0.624948  0.077500  1
  Ti  Ti47  1  0.833192  0.625037  0.077518  1
  Ti  Ti48  1  0.374977  0.375096  0.823828  1
  Ti  Ti49  1  0.874960  0.375017  0.823931  1
  Ti  Ti50  1  0.375043  0.874913  0.823773  1
  Ti  Ti51  1  0.875011  0.874996  0.823740  1
  Ti  Ti52  1  0.125048  0.124972  0.823932  1
  Ti  Ti53  1  0.625025  0.124891  0.823829  1
  Ti  Ti54  1  0.124995  0.624992  0.823742  1
  Ti  Ti55  1  0.624969  0.625083  0.823773  1
  Ti  Ti56  1  0.125065  0.375113  0.910082  1
  Ti  Ti57  1  0.624965  0.375106  0.910055  1
  Ti  Ti58  1  0.125093  0.874921  0.910044  1
  Ti  Ti59  1  0.624981  0.874944  0.909996  1
  Ti  Ti60  1  0.375044  0.124888  0.910056  1
  Ti  Ti61  1  0.874943  0.124881  0.910083  1
  Ti  Ti62  1  0.375025  0.625054  0.909997  1
  Ti  Ti63  1  0.874911  0.625075  0.910042  1
  Ti  Ti64  1  0.394472  0.385819  0.659742  1
  Ti  Ti65  1  0.891600  0.378438  0.648425  1
  Ti  Ti66  1  0.390787  0.892215  0.645640  1
  Ti  Ti67  1  0.884152  0.886210  0.668700  1
  Ti  Ti68  1  0.108397  0.121555  0.648425  1
  Ti  Ti69  1  0.605525  0.114175  0.659741  1
  Ti  Ti70  1  0.115846  0.613781  0.668701  1
  Ti  Ti71  1  0.609210  0.607777  0.645641  1
  Ti  Ti72  1  0.152076  0.372838  0.574438  1
  Ti  Ti73  1  0.638999  0.340983  0.571872  1
  Ti  Ti74  1  0.123569  0.856712  0.585799  1
  Ti  Ti75  1  0.659340  0.865680  0.578953  1
  Ti  Ti76  1  0.361000  0.159015  0.571871  1
  Ti  Ti77  1  0.847923  0.127160  0.574438  1
  Ti  Ti78  1  0.340659  0.634317  0.578954  1
  Ti  Ti79  1  0.876431  0.643285  0.585798  1
  Ti  Ti80  1  0.407990  0.414842  0.487970  1
  Ti  Ti81  1  0.901241  0.368614  0.487335  1
  Ti  Ti82  1  0.318981  0.926943  0.492300  1
  Ti  Ti83  1  0.905549  0.895394  0.495475  1
  Ti  Ti84  1  0.098758  0.131386  0.487334  1
  Ti  Ti85  1  0.592009  0.085157  0.487970  1
  Ti  Ti86  1  0.094451  0.604605  0.495475  1
  Ti  Ti87  1  0.681018  0.573057  0.492300  1
  Ti  Ti88  1  0.124976  0.874851  0.737687  1
  Ti  Ti89  1  0.625337  0.875065  0.737524  1
  Ti  Ti90  1  0.374658  0.624918  0.737528  1
  Ti  Ti91  1  0.875010  0.625121  0.737684  1
  Ti  Ti92  1  0.125074  0.375087  0.737749  1
  Ti  Ti93  1  0.624863  0.374929  0.737766  1
  Ti  Ti94  1  0.375122  0.125032  0.737763  1
  Ti  Ti95  1  0.874912  0.124878  0.737752  1
  Sn  Sn96  1  0.500000  0.750000  0.431397  1
