# generated using pymatgen
data_Ti96Sn
_symmetry_space_group_name_H-M   'P 1'
_cell_length_a   9.51302000
_cell_length_b   9.35086000
_cell_length_c   18.54723000
_cell_angle_alpha   90.00000000
_cell_angle_beta   90.00000000
_cell_angle_gamma   90.00000000
_symmetry_Int_Tables_number   1
_chemical_formula_structural   Ti96Sn
_chemical_formula_sum   'Ti96 Sn1'
_cell_volume   1649.86732743
_cell_formula_units_Z   1
loop_
 _symmetry_equiv_pos_site_id
 _symmetry_equiv_pos_as_xyz
  1  'x, y, z'
loop_
 _atom_site_type_symbol
 _atom_site_label
 _atom_site_symmetry_multiplicity
 _atom_site_fract_x
 _atom_site_fract_y
 _atom_site_fract_z
 _atom_site_occupancy
  Ti  Ti0  1  0.148491  0.375418  0.402633  1
  Ti  Ti1  1  0.643604  0.335487  0.406838  1
  Ti  Ti2  1  0.116677  0.855517  0.393593  1
  Ti  Ti3  1  0.688963  0.872520  0.388625  1
  Ti  Ti4  1  0.161946  0.369230  0.234776  1
  Ti  Ti5  1  0.658906  0.375939  0.234602  1
  Ti  Ti6  1  0.168226  0.874846  0.234995  1
  Ti  Ti7  1  0.652455  0.870470  0.236096  1
  Ti  Ti8  1  0.166666  0.375000  0.077689  1
  Ti  Ti9  1  0.666666  0.375000  0.077689  1
  Ti  Ti10  1  0.166666  0.875000  0.077689  1
  Ti  Ti11  1  0.666666  0.875000  0.077689  1
  Ti  Ti12  1  0.405864  0.382291  0.314118  1
  Ti  Ti13  1  0.896089  0.374964  0.321275  1
  Ti  Ti14  1  0.398858  0.896531  0.334619  1
  Ti  Ti15  1  0.914870  0.887489  0.303794  1
  Ti  Ti16  1  0.416667  0.375000  0.155379  1
  Ti  Ti17  1  0.916667  0.375000  0.155379  1
  Ti  Ti18  1  0.416667  0.875000  0.155379  1
  Ti  Ti19  1  0.916667  0.875000  0.155379  1
  Ti  Ti20  1  0.416667  0.375000  0.000000  1
  Ti  Ti21  1  0.916667  0.375000  0.000000  1
  Ti  Ti22  1  0.416667  0.875000  0.000000  1
  Ti  Ti23  1  0.916667  0.875000  0.000000  1
  Ti  Ti24  1  0.103911  0.125036  0.321274  1
  Ti  Ti25  1  0.594136  0.117709  0.314117  1
  Ti  Ti26  1  0.085130  0.612511  0.303793  1
  Ti  Ti27  1  0.601142  0.603469  0.334618  1
  Ti  Ti28  1  0.083333  0.125000  0.155379  1
  Ti  Ti29  1  0.583333  0.125000  0.155379  1
  Ti  Ti30  1  0.083333  0.625000  0.155379  1
  Ti  Ti31  1  0.583333  0.625000  0.155379  1
  Ti  Ti32  1  0.083333  0.125000  0.000000  1
  Ti  Ti33  1  0.583333  0.125000  0.000000  1
  Ti  Ti34  1  0.083333  0.625000  0.000000  1
  Ti  Ti35  1  0.583333  0.625000  0.000000  1
  Ti  Ti36  1  0.356395  0.164513  0.406838  1
  Ti  Ti37  1  0.851508  0.124582  0.402633  1
  Ti  Ti38  1  0.311036  0.627480  0.388625  1
  Ti  Ti39  1  0.883322  0.644483  0.393593  1
  Ti  Ti40  1  0.341093  0.124061  0.234602  1
  Ti  Ti41  1  0.838053  0.130770  0.234776  1
  Ti  Ti42  1  0.347544  0.629530  0.236096  1
  Ti  Ti43  1  0.831773  0.625154  0.234995  1
  Ti  Ti44  1  0.333333  0.125000  0.077689  1
  Ti  Ti45  1  0.833333  0.125000  0.077689  1
  Ti  Ti46  1  0.333333  0.625000  0.077689  1
  Ti  Ti47  1  0.833333  0.625000  0.077689  1
  Ti  Ti48  1  0.375000  0.375000  0.823738  1
  Ti  Ti49  1  0.875000  0.375000  0.823738  1
  Ti  Ti50  1  0.375000  0.875000  0.823738  1
  Ti  Ti51  1  0.875000  0.875000  0.823738  1
  Ti  Ti52  1  0.125000  0.125000  0.823738  1
  Ti  Ti53  1  0.625000  0.125000  0.823738  1
  Ti  Ti54  1  0.125000  0.625000  0.823738  1
  Ti  Ti55  1  0.625000  0.625000  0.823738  1
  Ti  Ti56  1  0.125000  0.375000  0.910084  1
  Ti  Ti57  1  0.625000  0.375000  0.910084  1
  Ti  Ti58  1  0.125000  0.875000  0.910084  1
  Ti  Ti59  1  0.625000  0.875000  0.910084  1
  Ti  Ti60  1  0.375000  0.125000  0.910084  1
  Ti  Ti61  1  0.875000  0.125000  0.910084  1
  Ti  Ti62  1  0.375000  0.625000  0.910084  1
  Ti  Ti63  1  0.875000  0.625000  0.910084  1
  Ti  Ti64  1  0.394876  0.384725  0.661327  1
  Ti  Ti65  1  0.888817  0.375916  0.644717  1
  Ti  Ti66  1  0.387582  0.895257  0.642359  1
  Ti  Ti67  1  0.881710  0.885143  0.673221  1
  Ti  Ti68  1  0.111183  0.124084  0.644717  1
  Ti  Ti69  1  0.605124  0.115275  0.661327  1
  Ti  Ti70  1  0.118290  0.614857  0.673221  1
  Ti  Ti71  1  0.612418  0.604743  0.642359  1
  Ti  Ti72  1  0.155192  0.380161  0.573748  1
  Ti  Ti73  1  0.634098  0.333991  0.567748  1
  Ti  Ti74  1  0.114506  0.853383  0.586554  1
  Ti  Ti75  1  0.663511  0.867475  0.582036  1
  Ti  Ti76  1  0.365902  0.166009  0.567748  1
  Ti  Ti77  1  0.844808  0.119839  0.573748  1
  Ti  Ti78  1  0.336489  0.632525  0.582036  1
  Ti  Ti79  1  0.885494  0.646617  0.586554  1
  Ti  Ti80  1  0.412524  0.426996  0.483513  1
  Ti  Ti81  1  0.903250  0.365622  0.488180  1
  Ti  Ti82  1  0.296332  0.934936  0.490642  1
  Ti  Ti83  1  0.904952  0.894803  0.490438  1
  Ti  Ti84  1  0.096750  0.134378  0.488180  1
  Ti  Ti85  1  0.587476  0.073004  0.483513  1
  Ti  Ti86  1  0.095048  0.605197  0.490438  1
  Ti  Ti87  1  0.703668  0.565064  0.490642  1
  Ti  Ti88  1  0.125000  0.875000  0.737395  1
  Ti  Ti89  1  0.625000  0.875000  0.737395  1
  Ti  Ti90  1  0.375000  0.625000  0.737395  1
  Ti  Ti91  1  0.875000  0.625000  0.737395  1
  Ti  Ti92  1  0.125000  0.375000  0.737395  1
  Ti  Ti93  1  0.625000  0.375000  0.737395  1
  Ti  Ti94  1  0.375000  0.125000  0.737395  1
  Ti  Ti95  1  0.875000  0.125000  0.737395  1
  Sn  Sn96  1  0.500000  0.750000  0.475261  1
