# generated using pymatgen
data_Ti96Al
_symmetry_space_group_name_H-M   'P 1'
_cell_length_a   9.51302000
_cell_length_b   9.35086000
_cell_length_c   18.54723000
_cell_angle_alpha   90.00000000
_cell_angle_beta   90.00000000
_cell_angle_gamma   90.00000000
_symmetry_Int_Tables_number   1
_chemical_formula_structural   Ti96Al
_chemical_formula_sum   'Ti96 Al1'
_cell_volume   1649.86732743
_cell_formula_units_Z   1
loop_
 _symmetry_equiv_pos_site_id
 _symmetry_equiv_pos_as_xyz
  1  'x, y, z'
loop_
 _atom_site_type_symbol
 _atom_site_label
 _atom_site_symmetry_multiplicity
 _atom_site_fract_x
 _atom_site_fract_y
 _atom_site_fract_z
 _atom_site_occupancy
  Ti  Ti0  1  0.146221  0.379482  0.404991  1
  Ti  Ti1  1  0.655494  0.343681  0.415537  1
  Ti  Ti2  1  0.141361  0.857689  0.412803  1
  Ti  Ti3  1  0.661739  0.875208  0.399656  1
  Ti  Ti4  1  0.145066  0.364725  0.241095  1
  Ti  Ti5  1  0.660415  0.369959  0.234012  1
  Ti  Ti6  1  0.167371  0.867617  0.235688  1
  Ti  Ti7  1  0.679810  0.903804  0.233102  1
  Ti  Ti8  1  0.166703  0.375128  0.077311  1
  Ti  Ti9  1  0.666718  0.375016  0.077309  1
  Ti  Ti10  1  0.166711  0.875044  0.077414  1
  Ti  Ti11  1  0.666571  0.874865  0.077505  1
  Ti  Ti12  1  0.406448  0.371831  0.321672  1
  Ti  Ti13  1  0.897653  0.374348  0.325832  1
  Ti  Ti14  1  0.361831  0.934715  0.337179  1
  Ti  Ti15  1  0.916230  0.876805  0.316317  1
  Ti  Ti16  1  0.416824  0.375243  0.154895  1
  Ti  Ti17  1  0.916887  0.374844  0.154810  1
  Ti  Ti18  1  0.416468  0.875060  0.155351  1
  Ti  Ti19  1  0.916808  0.874953  0.154870  1
  Ti  Ti20  1  0.416689  0.375070  -0.000177  1
  Ti  Ti21  1  0.916655  0.375009  -0.000235  1
  Ti  Ti22  1  0.416673  0.874952  -0.000046  1
  Ti  Ti23  1  0.916647  0.874965  -0.000187  1
  Ti  Ti24  1  0.102347  0.125654  0.325831  1
  Ti  Ti25  1  0.593552  0.128171  0.321671  1
  Ti  Ti26  1  0.083770  0.623198  0.316316  1
  Ti  Ti27  1  0.638169  0.565287  0.337178  1
  Ti  Ti28  1  0.083112  0.125191  0.154808  1
  Ti  Ti29  1  0.583174  0.124787  0.154897  1
  Ti  Ti30  1  0.083193  0.625076  0.154870  1
  Ti  Ti31  1  0.583534  0.624946  0.155352  1
  Ti  Ti32  1  0.083345  0.125000  -0.000235  1
  Ti  Ti33  1  0.583312  0.124943  -0.000176  1
  Ti  Ti34  1  0.083353  0.625040  -0.000187  1
  Ti  Ti35  1  0.583329  0.625043  -0.000048  1
  Ti  Ti36  1  0.344505  0.156319  0.415537  1
  Ti  Ti37  1  0.853778  0.120518  0.404991  1
  Ti  Ti38  1  0.338260  0.624793  0.399656  1
  Ti  Ti39  1  0.858638  0.642311  0.412803  1
  Ti  Ti40  1  0.339584  0.130046  0.234012  1
  Ti  Ti41  1  0.854933  0.135282  0.241095  1
  Ti  Ti42  1  0.320188  0.596201  0.233102  1
  Ti  Ti43  1  0.832628  0.632389  0.235688  1
  Ti  Ti44  1  0.333282  0.125008  0.077309  1
  Ti  Ti45  1  0.833296  0.124896  0.077312  1
  Ti  Ti46  1  0.333428  0.625150  0.077503  1
  Ti  Ti47  1  0.833289  0.624975  0.077415  1
  Ti  Ti48  1  0.375065  0.375107  0.823784  1
  Ti  Ti49  1  0.874927  0.374989  0.823776  1
  Ti  Ti50  1  0.375022  0.874984  0.823831  1
  Ti  Ti51  1  0.874895  0.874954  0.823825  1
  Ti  Ti52  1  0.125073  0.124991  0.823776  1
  Ti  Ti53  1  0.624942  0.124880  0.823786  1
  Ti  Ti54  1  0.125107  0.625026  0.823825  1
  Ti  Ti55  1  0.624982  0.624995  0.823830  1
  Ti  Ti56  1  0.125032  0.375049  0.909983  1
  Ti  Ti57  1  0.624986  0.375037  0.910009  1
  Ti  Ti58  1  0.125043  0.874984  0.910018  1
  Ti  Ti59  1  0.624941  0.874939  0.910077  1
  Ti  Ti60  1  0.375016  0.124950  0.910011  1
  Ti  Ti61  1  0.874971  0.124940  0.909983  1
  Ti  Ti62  1  0.375058  0.625037  0.910076  1
  Ti  Ti63  1  0.874959  0.624997  0.910019  1
  Ti  Ti64  1  0.394349  0.391765  0.654931  1
  Ti  Ti65  1  0.899513  0.377702  0.652446  1
  Ti  Ti66  1  0.394877  0.884261  0.652561  1
  Ti  Ti67  1  0.890104  0.884060  0.658370  1
  Ti  Ti68  1  0.100486  0.122294  0.652446  1
  Ti  Ti69  1  0.605650  0.108230  0.654932  1
  Ti  Ti70  1  0.109895  0.615935  0.658370  1
  Ti  Ti71  1  0.605123  0.615736  0.652561  1
  Ti  Ti72  1  0.153248  0.371340  0.570683  1
  Ti  Ti73  1  0.646839  0.354147  0.578964  1
  Ti  Ti74  1  0.142807  0.866864  0.579864  1
  Ti  Ti75  1  0.651120  0.860750  0.570554  1
  Ti  Ti76  1  0.353161  0.145851  0.578964  1
  Ti  Ti77  1  0.846751  0.128658  0.570683  1
  Ti  Ti78  1  0.348880  0.639249  0.570554  1
  Ti  Ti79  1  0.857192  0.633135  0.579864  1
  Ti  Ti80  1  0.404198  0.393634  0.490321  1
  Ti  Ti81  1  0.900279  0.377149  0.490406  1
  Ti  Ti82  1  0.383786  0.900047  0.497384  1
  Ti  Ti83  1  0.905453  0.882547  0.494155  1
  Ti  Ti84  1  0.099721  0.122851  0.490406  1
  Ti  Ti85  1  0.595802  0.106366  0.490321  1
  Ti  Ti86  1  0.094547  0.617453  0.494155  1
  Ti  Ti87  1  0.616214  0.599953  0.497384  1
  Ti  Ti88  1  0.124969  0.875167  0.737528  1
  Ti  Ti89  1  0.624799  0.874845  0.737436  1
  Ti  Ti90  1  0.375197  0.625137  0.737431  1
  Ti  Ti91  1  0.875027  0.624811  0.737530  1
  Ti  Ti92  1  0.125009  0.374979  0.737520  1
  Ti  Ti93  1  0.624993  0.374844  0.737478  1
  Ti  Ti94  1  0.375003  0.125141  0.737476  1
  Ti  Ti95  1  0.874988  0.125004  0.737520  1
  Al  Al96  1  0.500000  0.750001  0.317570  1
