# generated using pymatgen
data_Ti
_symmetry_space_group_name_H-M   'P 1'
_cell_length_a   9.51302000
_cell_length_b   9.35086000
_cell_length_c   18.54723000
_cell_angle_alpha   90.00000000
_cell_angle_beta   90.00000000
_cell_angle_gamma   90.00000000
_symmetry_Int_Tables_number   1
_chemical_formula_structural   Ti
_chemical_formula_sum   Ti97
_cell_volume   1649.86732743
_cell_formula_units_Z   97
loop_
 _symmetry_equiv_pos_site_id
 _symmetry_equiv_pos_as_xyz
  1  'x, y, z'
loop_
 _atom_site_type_symbol
 _atom_site_label
 _atom_site_symmetry_multiplicity
 _atom_site_fract_x
 _atom_site_fract_y
 _atom_site_fract_z
 _atom_site_occupancy
  Ti  Ti0  1  0.147287  0.375503  0.406578  1
  Ti  Ti1  1  0.647703  0.337278  0.409580  1
  Ti  Ti2  1  0.131984  0.856061  0.399156  1
  Ti  Ti3  1  0.678552  0.880874  0.391917  1
  Ti  Ti4  1  0.155969  0.369610  0.236024  1
  Ti  Ti5  1  0.660029  0.370783  0.234038  1
  Ti  Ti6  1  0.163720  0.870960  0.234916  1
  Ti  Ti7  1  0.659980  0.880528  0.236090  1
  Ti  Ti8  1  0.166623  0.375014  0.077511  1
  Ti  Ti9  1  0.666698  0.374946  0.077474  1
  Ti  Ti10  1  0.166802  0.874980  0.077530  1
  Ti  Ti11  1  0.666631  0.875055  0.077538  1
  Ti  Ti12  1  0.405878  0.376694  0.317420  1
  Ti  Ti13  1  0.896056  0.372457  0.322778  1
  Ti  Ti14  1  0.386535  0.911046  0.330214  1
  Ti  Ti15  1  0.914913  0.883038  0.311247  1
  Ti  Ti16  1  0.416664  0.374857  0.155081  1
  Ti  Ti17  1  0.916547  0.374865  0.155053  1
  Ti  Ti18  1  0.416657  0.874901  0.155361  1
  Ti  Ti19  1  0.916870  0.875222  0.154998  1
  Ti  Ti20  1  0.416671  0.375015  -0.000107  1
  Ti  Ti21  1  0.916630  0.374985  -0.000132  1
  Ti  Ti22  1  0.416698  0.874971  -0.000037  1
  Ti  Ti23  1  0.916679  0.875003  -0.000145  1
  Ti  Ti24  1  0.103944  0.127544  0.322777  1
  Ti  Ti25  1  0.594122  0.123307  0.317419  1
  Ti  Ti26  1  0.085087  0.616964  0.311246  1
  Ti  Ti27  1  0.613465  0.588955  0.330213  1
  Ti  Ti28  1  0.083453  0.125151  0.155052  1
  Ti  Ti29  1  0.583337  0.125162  0.155080  1
  Ti  Ti30  1  0.083128  0.624800  0.155000  1
  Ti  Ti31  1  0.583345  0.625107  0.155359  1
  Ti  Ti32  1  0.083373  0.125017  -0.000133  1
  Ti  Ti33  1  0.583329  0.124992  -0.000106  1
  Ti  Ti34  1  0.083320  0.625008  -0.000145  1
  Ti  Ti35  1  0.583304  0.625034  -0.000038  1
  Ti  Ti36  1  0.352296  0.162722  0.409579  1
  Ti  Ti37  1  0.852711  0.124497  0.406578  1
  Ti  Ti38  1  0.321447  0.619127  0.391917  1
  Ti  Ti39  1  0.868015  0.643939  0.399156  1
  Ti  Ti40  1  0.339971  0.129221  0.234038  1
  Ti  Ti41  1  0.844031  0.130394  0.236025  1
  Ti  Ti42  1  0.340019  0.619475  0.236091  1
  Ti  Ti43  1  0.836278  0.629045  0.234916  1
  Ti  Ti44  1  0.333302  0.125066  0.077474  1
  Ti  Ti45  1  0.833377  0.124998  0.077512  1
  Ti  Ti46  1  0.333367  0.624959  0.077538  1
  Ti  Ti47  1  0.833197  0.625034  0.077529  1
  Ti  Ti48  1  0.375030  0.375107  0.823785  1
  Ti  Ti49  1  0.874949  0.375035  0.823895  1
  Ti  Ti50  1  0.375074  0.874874  0.823721  1
  Ti  Ti51  1  0.874975  0.874981  0.823686  1
  Ti  Ti52  1  0.125060  0.124954  0.823896  1
  Ti  Ti53  1  0.624969  0.124885  0.823786  1
  Ti  Ti54  1  0.125029  0.625011  0.823687  1
  Ti  Ti55  1  0.624938  0.625126  0.823719  1
  Ti  Ti56  1  0.125069  0.375116  0.910048  1
  Ti  Ti57  1  0.624948  0.375107  0.910035  1
  Ti  Ti58  1  0.125095  0.874909  0.910004  1
  Ti  Ti59  1  0.624938  0.874943  0.909968  1
  Ti  Ti60  1  0.375060  0.124889  0.910035  1
  Ti  Ti61  1  0.874937  0.124881  0.910050  1
  Ti  Ti62  1  0.375066  0.625056  0.909968  1
  Ti  Ti63  1  0.874907  0.625089  0.910002  1
  Ti  Ti64  1  0.394263  0.385102  0.658056  1
  Ti  Ti65  1  0.893979  0.373538  0.649413  1
  Ti  Ti66  1  0.396052  0.890878  0.645068  1
  Ti  Ti67  1  0.885558  0.884383  0.665714  1
  Ti  Ti68  1  0.106018  0.126456  0.649413  1
  Ti  Ti69  1  0.605735  0.114894  0.658055  1
  Ti  Ti70  1  0.114441  0.615611  0.665715  1
  Ti  Ti71  1  0.603946  0.609117  0.645069  1
  Ti  Ti72  1  0.151002  0.374856  0.569581  1
  Ti  Ti73  1  0.642064  0.343320  0.572800  1
  Ti  Ti74  1  0.129935  0.861728  0.584333  1
  Ti  Ti75  1  0.657120  0.867011  0.577604  1
  Ti  Ti76  1  0.357935  0.156679  0.572800  1
  Ti  Ti77  1  0.848997  0.125142  0.569581  1
  Ti  Ti78  1  0.342880  0.632987  0.577605  1
  Ti  Ti79  1  0.870065  0.638269  0.584333  1
  Ti  Ti80  1  0.409901  0.409358  0.489267  1
  Ti  Ti81  1  0.901638  0.374942  0.488680  1
  Ti  Ti82  1  0.336805  0.920674  0.490936  1
  Ti  Ti83  1  0.905825  0.880749  0.491251  1
  Ti  Ti84  1  0.098362  0.125058  0.488680  1
  Ti  Ti85  1  0.590098  0.090642  0.489267  1
  Ti  Ti86  1  0.094174  0.619251  0.491251  1
  Ti  Ti87  1  0.663195  0.579325  0.490936  1
  Ti  Ti88  1  0.124976  0.874778  0.737604  1
  Ti  Ti89  1  0.625218  0.875100  0.737412  1
  Ti  Ti90  1  0.374780  0.624890  0.737415  1
  Ti  Ti91  1  0.875012  0.625200  0.737600  1
  Ti  Ti92  1  0.125118  0.375164  0.737697  1
  Ti  Ti93  1  0.624890  0.374973  0.737700  1
  Ti  Ti94  1  0.375097  0.124994  0.737698  1
  Ti  Ti95  1  0.874870  0.124807  0.737703  1
  Ti  Ti96  1  0.500000  0.750000  0.436082  1
