# generated using pymatgen
data_ZrTi96
_symmetry_space_group_name_H-M   'P 1'
_cell_length_a   9.51302000
_cell_length_b   9.35086000
_cell_length_c   18.54723000
_cell_angle_alpha   90.00000000
_cell_angle_beta   90.00000000
_cell_angle_gamma   90.00000000
_symmetry_Int_Tables_number   1
_chemical_formula_structural   ZrTi96
_chemical_formula_sum   'Zr1 Ti96'
_cell_volume   1649.86732743
_cell_formula_units_Z   1
loop_
 _symmetry_equiv_pos_site_id
 _symmetry_equiv_pos_as_xyz
  1  'x, y, z'
loop_
 _atom_site_type_symbol
 _atom_site_label
 _atom_site_symmetry_multiplicity
 _atom_site_fract_x
 _atom_site_fract_y
 _atom_site_fract_z
 _atom_site_occupancy
  Ti  Ti0  1  0.144034  0.366754  0.404757  1
  Ti  Ti1  1  0.638973  0.347221  0.400980  1
  Ti  Ti2  1  0.149844  0.850534  0.392485  1
  Ti  Ti3  1  0.678000  0.898256  0.396544  1
  Ti  Ti4  1  0.155114  0.370269  0.237435  1
  Ti  Ti5  1  0.662269  0.373023  0.233694  1
  Ti  Ti6  1  0.162454  0.875647  0.234527  1
  Ti  Ti7  1  0.662674  0.870787  0.234919  1
  Ti  Ti8  1  0.166665  0.375023  0.077634  1
  Ti  Ti9  1  0.666684  0.375000  0.077635  1
  Ti  Ti10  1  0.166664  0.874996  0.077628  1
  Ti  Ti11  1  0.666680  0.874993  0.077619  1
  Ti  Ti12  1  0.406164  0.378187  0.310622  1
  Ti  Ti13  1  0.893641  0.383308  0.326539  1
  Ti  Ti14  1  0.407734  0.884707  0.318930  1
  Ti  Ti15  1  0.913479  0.883464  0.311988  1
  Ti  Ti16  1  0.416694  0.374994  0.155289  1
  Ti  Ti17  1  0.916652  0.374966  0.155266  1
  Ti  Ti18  1  0.416644  0.874994  0.155312  1
  Ti  Ti19  1  0.916678  0.874987  0.155254  1
  Ti  Ti20  1  0.416683  0.375033  0.000044  1
  Ti  Ti21  1  0.916628  0.375018  0.000017  1
  Ti  Ti22  1  0.416677  0.874974  0.000049  1
  Ti  Ti23  1  0.916645  0.874989  0.000002  1
  Ti  Ti24  1  0.106359  0.116692  0.326538  1
  Ti  Ti25  1  0.593836  0.121814  0.310621  1
  Ti  Ti26  1  0.086521  0.616536  0.311988  1
  Ti  Ti27  1  0.592266  0.615293  0.318929  1
  Ti  Ti28  1  0.083348  0.125044  0.155266  1
  Ti  Ti29  1  0.583306  0.125015  0.155289  1
  Ti  Ti30  1  0.083322  0.625025  0.155254  1
  Ti  Ti31  1  0.583357  0.625015  0.155312  1
  Ti  Ti32  1  0.083373  0.124985  0.000016  1
  Ti  Ti33  1  0.583317  0.124970  0.000044  1
  Ti  Ti34  1  0.083355  0.625019  0.000004  1
  Ti  Ti35  1  0.583325  0.625030  0.000050  1
  Ti  Ti36  1  0.361026  0.152779  0.400980  1
  Ti  Ti37  1  0.855965  0.133246  0.404757  1
  Ti  Ti38  1  0.321999  0.601744  0.396544  1
  Ti  Ti39  1  0.850155  0.649466  0.392485  1
  Ti  Ti40  1  0.337730  0.126978  0.233694  1
  Ti  Ti41  1  0.844885  0.129733  0.237435  1
  Ti  Ti42  1  0.337325  0.629215  0.234919  1
  Ti  Ti43  1  0.837545  0.624355  0.234528  1
  Ti  Ti44  1  0.333316  0.125008  0.077635  1
  Ti  Ti45  1  0.833335  0.124985  0.077634  1
  Ti  Ti46  1  0.333320  0.625018  0.077620  1
  Ti  Ti47  1  0.833336  0.625014  0.077629  1
  Ti  Ti48  1  0.375009  0.375000  0.823912  1
  Ti  Ti49  1  0.874942  0.374913  0.823877  1
  Ti  Ti50  1  0.374995  0.874950  0.823841  1
  Ti  Ti51  1  0.875081  0.875074  0.823782  1
  Ti  Ti52  1  0.125069  0.125083  0.823876  1
  Ti  Ti53  1  0.624994  0.125000  0.823912  1
  Ti  Ti54  1  0.124917  0.624928  0.823785  1
  Ti  Ti55  1  0.625011  0.625040  0.823842  1
  Ti  Ti56  1  0.124973  0.375021  0.910153  1
  Ti  Ti57  1  0.625006  0.374989  0.910160  1
  Ti  Ti58  1  0.125006  0.874978  0.910100  1
  Ti  Ti59  1  0.625001  0.874999  0.910122  1
  Ti  Ti60  1  0.374999  0.125010  0.910160  1
  Ti  Ti61  1  0.875031  0.124977  0.910152  1
  Ti  Ti62  1  0.375003  0.625001  0.910123  1
  Ti  Ti63  1  0.875000  0.625025  0.910100  1
  Ti  Ti64  1  0.387947  0.384994  0.661066  1
  Ti  Ti65  1  0.890260  0.373692  0.648754  1
  Ti  Ti66  1  0.386868  0.892351  0.651168  1
  Ti  Ti67  1  0.889605  0.882523  0.665364  1
  Ti  Ti68  1  0.109739  0.126306  0.648753  1
  Ti  Ti69  1  0.612051  0.115003  0.661066  1
  Ti  Ti70  1  0.110393  0.617473  0.665365  1
  Ti  Ti71  1  0.613130  0.607644  0.651169  1
  Ti  Ti72  1  0.145610  0.379268  0.568498  1
  Ti  Ti73  1  0.642618  0.343798  0.576461  1
  Ti  Ti74  1  0.131036  0.858309  0.579846  1
  Ti  Ti75  1  0.665946  0.881149  0.576214  1
  Ti  Ti76  1  0.357381  0.156202  0.576461  1
  Ti  Ti77  1  0.854389  0.120732  0.568497  1
  Ti  Ti78  1  0.334053  0.618849  0.576214  1
  Ti  Ti79  1  0.868963  0.641689  0.579846  1
  Ti  Ti80  1  0.409975  0.394505  0.491492  1
  Ti  Ti81  1  0.894741  0.373082  0.488770  1
  Ti  Ti82  1  0.328077  0.938364  0.489741  1
  Ti  Ti83  1  0.915740  0.879473  0.482853  1
  Ti  Ti84  1  0.105258  0.126918  0.488770  1
  Ti  Ti85  1  0.590024  0.105495  0.491492  1
  Ti  Ti86  1  0.084260  0.620527  0.482853  1
  Ti  Ti87  1  0.671923  0.561635  0.489742  1
  Ti  Ti88  1  0.125364  0.875016  0.737591  1
  Ti  Ti89  1  0.625237  0.875107  0.737712  1
  Ti  Ti90  1  0.374751  0.624872  0.737717  1
  Ti  Ti91  1  0.874631  0.624973  0.737594  1
  Ti  Ti92  1  0.124784  0.374938  0.737676  1
  Ti  Ti93  1  0.625052  0.374624  0.737699  1
  Ti  Ti94  1  0.374939  0.125356  0.737693  1
  Ti  Ti95  1  0.875208  0.125044  0.737673  1
  Zr  Zr96  1  0.500000  0.750000  0.484641  1
