# generated using pymatgen
data_Ti
_symmetry_space_group_name_H-M   'P 1'
_cell_length_a   9.51302000
_cell_length_b   9.35086000
_cell_length_c   18.54723000
_cell_angle_alpha   90.00000000
_cell_angle_beta   90.00000000
_cell_angle_gamma   90.00000000
_symmetry_Int_Tables_number   1
_chemical_formula_structural   Ti
_chemical_formula_sum   Ti97
_cell_volume   1649.86732743
_cell_formula_units_Z   97
loop_
 _symmetry_equiv_pos_site_id
 _symmetry_equiv_pos_as_xyz
  1  'x, y, z'
loop_
 _atom_site_type_symbol
 _atom_site_label
 _atom_site_symmetry_multiplicity
 _atom_site_fract_x
 _atom_site_fract_y
 _atom_site_fract_z
 _atom_site_occupancy
  Ti  Ti0  1  0.145050  0.377843  0.402901  1
  Ti  Ti1  1  0.651285  0.363425  0.399519  1
  Ti  Ti2  1  0.167053  0.882028  0.402158  1
  Ti  Ti3  1  0.632995  0.928484  0.397651  1
  Ti  Ti4  1  0.162585  0.377026  0.235877  1
  Ti  Ti5  1  0.659741  0.379930  0.234814  1
  Ti  Ti6  1  0.159510  0.875897  0.236400  1
  Ti  Ti7  1  0.656493  0.878278  0.233698  1
  Ti  Ti8  1  0.166639  0.375012  0.077602  1
  Ti  Ti9  1  0.666684  0.375029  0.077601  1
  Ti  Ti10  1  0.166704  0.875026  0.077593  1
  Ti  Ti11  1  0.666675  0.874981  0.077645  1
  Ti  Ti12  1  0.402341  0.373197  0.320008  1
  Ti  Ti13  1  0.911305  0.363517  0.310615  1
  Ti  Ti14  1  0.409024  0.870084  0.317200  1
  Ti  Ti15  1  0.911211  0.874482  0.327092  1
  Ti  Ti16  1  0.416576  0.375021  0.155227  1
  Ti  Ti17  1  0.916728  0.375019  0.155219  1
  Ti  Ti18  1  0.416700  0.874991  0.155267  1
  Ti  Ti19  1  0.916773  0.874950  0.155269  1
  Ti  Ti20  1  0.416680  0.375004  -0.000015  1
  Ti  Ti21  1  0.916647  0.375015  -0.000009  1
  Ti  Ti22  1  0.416698  0.875004  0.000000  1
  Ti  Ti23  1  0.916652  0.875000  0.000009  1
  Ti  Ti24  1  0.097659  0.126804  0.320007  1
  Ti  Ti25  1  0.588695  0.136484  0.310614  1
  Ti  Ti26  1  0.090975  0.629917  0.317199  1
  Ti  Ti27  1  0.588789  0.625519  0.327091  1
  Ti  Ti28  1  0.083427  0.124993  0.155227  1
  Ti  Ti29  1  0.583269  0.124994  0.155219  1
  Ti  Ti30  1  0.083303  0.625020  0.155267  1
  Ti  Ti31  1  0.583224  0.625063  0.155268  1
  Ti  Ti32  1  0.083323  0.125005  -0.000016  1
  Ti  Ti33  1  0.583352  0.124994  -0.000009  1
  Ti  Ti34  1  0.083306  0.625001  0.000002  1
  Ti  Ti35  1  0.583347  0.625007  0.000009  1
  Ti  Ti36  1  0.354949  0.122157  0.402901  1
  Ti  Ti37  1  0.848714  0.136575  0.399519  1
  Ti  Ti38  1  0.332946  0.617973  0.402158  1
  Ti  Ti39  1  0.867004  0.571516  0.397651  1
  Ti  Ti40  1  0.337414  0.122977  0.235877  1
  Ti  Ti41  1  0.840258  0.120073  0.234813  1
  Ti  Ti42  1  0.340489  0.624106  0.236400  1
  Ti  Ti43  1  0.843506  0.621725  0.233698  1
  Ti  Ti44  1  0.333361  0.125001  0.077602  1
  Ti  Ti45  1  0.833316  0.124983  0.077601  1
  Ti  Ti46  1  0.333296  0.624986  0.077594  1
  Ti  Ti47  1  0.833325  0.625030  0.077646  1
  Ti  Ti48  1  0.375008  0.374962  0.823929  1
  Ti  Ti49  1  0.875012  0.374955  0.823818  1
  Ti  Ti50  1  0.375040  0.875028  0.823919  1
  Ti  Ti51  1  0.874953  0.875003  0.823891  1
  Ti  Ti52  1  0.124998  0.125029  0.823928  1
  Ti  Ti53  1  0.624996  0.125043  0.823818  1
  Ti  Ti54  1  0.124963  0.624962  0.823921  1
  Ti  Ti55  1  0.625051  0.624992  0.823893  1
  Ti  Ti56  1  0.124922  0.375029  0.910135  1
  Ti  Ti57  1  0.625059  0.375028  0.910107  1
  Ti  Ti58  1  0.124925  0.874981  0.910132  1
  Ti  Ti59  1  0.625042  0.874988  0.910088  1
  Ti  Ti60  1  0.375082  0.124970  0.910134  1
  Ti  Ti61  1  0.874944  0.124970  0.910106  1
  Ti  Ti62  1  0.375080  0.625015  0.910132  1
  Ti  Ti63  1  0.874964  0.625013  0.910089  1
  Ti  Ti64  1  0.394059  0.367307  0.646845  1
  Ti  Ti65  1  0.892307  0.364013  0.663612  1
  Ti  Ti66  1  0.384382  0.862222  0.662723  1
  Ti  Ti67  1  0.892528  0.862143  0.650216  1
  Ti  Ti68  1  0.105940  0.132688  0.646845  1
  Ti  Ti69  1  0.607691  0.135983  0.663612  1
  Ti  Ti70  1  0.115615  0.637771  0.662723  1
  Ti  Ti71  1  0.607469  0.637851  0.650217  1
  Ti  Ti72  1  0.143486  0.391814  0.573241  1
  Ti  Ti73  1  0.654447  0.380385  0.578662  1
  Ti  Ti74  1  0.154503  0.879019  0.571988  1
  Ti  Ti75  1  0.628043  0.900077  0.581961  1
  Ti  Ti76  1  0.356513  0.108184  0.573241  1
  Ti  Ti77  1  0.845552  0.119613  0.578661  1
  Ti  Ti78  1  0.345497  0.620980  0.571988  1
  Ti  Ti79  1  0.871956  0.599921  0.581961  1
  Ti  Ti80  1  0.387517  0.363150  0.489226  1
  Ti  Ti81  1  0.903232  0.355170  0.494430  1
  Ti  Ti82  1  0.410250  0.855718  0.485172  1
  Ti  Ti83  1  0.927572  0.909916  0.484367  1
  Ti  Ti84  1  0.112483  0.136849  0.489226  1
  Ti  Ti85  1  0.596767  0.144830  0.494430  1
  Ti  Ti86  1  0.089750  0.644281  0.485172  1
  Ti  Ti87  1  0.572428  0.590084  0.484367  1
  Ti  Ti88  1  0.125118  0.874924  0.737790  1
  Ti  Ti89  1  0.624886  0.875228  0.737627  1
  Ti  Ti90  1  0.374868  0.625046  0.737791  1
  Ti  Ti91  1  0.875108  0.624753  0.737630  1
  Ti  Ti92  1  0.124953  0.374965  0.737682  1
  Ti  Ti93  1  0.625172  0.374750  0.737642  1
  Ti  Ti94  1  0.375038  0.125016  0.737680  1
  Ti  Ti95  1  0.874822  0.125232  0.737640  1
  Ti  Ti96  1  0.750000  0.750000  0.451848  1
