# generated using pymatgen
data_Ti96Sn
_symmetry_space_group_name_H-M   'P 1'
_cell_length_a   9.51302000
_cell_length_b   9.35086000
_cell_length_c   18.54723000
_cell_angle_alpha   90.00000000
_cell_angle_beta   90.00000000
_cell_angle_gamma   90.00000000
_symmetry_Int_Tables_number   1
_chemical_formula_structural   Ti96Sn
_chemical_formula_sum   'Ti96 Sn1'
_cell_volume   1649.86732743
_cell_formula_units_Z   1
loop_
 _symmetry_equiv_pos_site_id
 _symmetry_equiv_pos_as_xyz
  1  'x, y, z'
loop_
 _atom_site_type_symbol
 _atom_site_label
 _atom_site_symmetry_multiplicity
 _atom_site_fract_x
 _atom_site_fract_y
 _atom_site_fract_z
 _atom_site_occupancy
  Ti  Ti0  1  0.148631  0.375468  0.402603  1
  Ti  Ti1  1  0.643437  0.335466  0.406854  1
  Ti  Ti2  1  0.116811  0.855492  0.393536  1
  Ti  Ti3  1  0.688749  0.872610  0.388677  1
  Ti  Ti4  1  0.161985  0.369331  0.234777  1
  Ti  Ti5  1  0.658904  0.375917  0.234595  1
  Ti  Ti6  1  0.168215  0.874918  0.234970  1
  Ti  Ti7  1  0.652426  0.870350  0.236129  1
  Ti  Ti8  1  0.166666  0.375000  0.077689  1
  Ti  Ti9  1  0.666666  0.375000  0.077689  1
  Ti  Ti10  1  0.166666  0.875000  0.077689  1
  Ti  Ti11  1  0.666666  0.875000  0.077689  1
  Ti  Ti12  1  0.405924  0.382302  0.314084  1
  Ti  Ti13  1  0.896077  0.374861  0.321305  1
  Ti  Ti14  1  0.398842  0.896504  0.334621  1
  Ti  Ti15  1  0.914839  0.887344  0.303802  1
  Ti  Ti16  1  0.416667  0.375000  0.155379  1
  Ti  Ti17  1  0.916667  0.375000  0.155379  1
  Ti  Ti18  1  0.416667  0.875000  0.155379  1
  Ti  Ti19  1  0.916667  0.875000  0.155379  1
  Ti  Ti20  1  0.416667  0.375000  0.000000  1
  Ti  Ti21  1  0.916667  0.375000  0.000000  1
  Ti  Ti22  1  0.416667  0.875000  0.000000  1
  Ti  Ti23  1  0.916667  0.875000  0.000000  1
  Ti  Ti24  1  0.103923  0.125139  0.321304  1
  Ti  Ti25  1  0.594076  0.117698  0.314083  1
  Ti  Ti26  1  0.085161  0.612656  0.303801  1
  Ti  Ti27  1  0.601158  0.603496  0.334620  1
  Ti  Ti28  1  0.083333  0.125000  0.155379  1
  Ti  Ti29  1  0.583333  0.125000  0.155379  1
  Ti  Ti30  1  0.083333  0.625000  0.155379  1
  Ti  Ti31  1  0.583333  0.625000  0.155379  1
  Ti  Ti32  1  0.083333  0.125000  0.000000  1
  Ti  Ti33  1  0.583333  0.125000  0.000000  1
  Ti  Ti34  1  0.083333  0.625000  0.000000  1
  Ti  Ti35  1  0.583333  0.625000  0.000000  1
  Ti  Ti36  1  0.356562  0.164534  0.406854  1
  Ti  Ti37  1  0.851368  0.124532  0.402603  1
  Ti  Ti38  1  0.311250  0.627390  0.388677  1
  Ti  Ti39  1  0.883188  0.644508  0.393536  1
  Ti  Ti40  1  0.341095  0.124083  0.234595  1
  Ti  Ti41  1  0.838014  0.130669  0.234777  1
  Ti  Ti42  1  0.347573  0.629650  0.236129  1
  Ti  Ti43  1  0.831784  0.625082  0.234970  1
  Ti  Ti44  1  0.333333  0.125000  0.077689  1
  Ti  Ti45  1  0.833333  0.125000  0.077689  1
  Ti  Ti46  1  0.333333  0.625000  0.077689  1
  Ti  Ti47  1  0.833333  0.625000  0.077689  1
  Ti  Ti48  1  0.375000  0.375000  0.823738  1
  Ti  Ti49  1  0.875000  0.375000  0.823738  1
  Ti  Ti50  1  0.375000  0.875000  0.823738  1
  Ti  Ti51  1  0.875000  0.875000  0.823738  1
  Ti  Ti52  1  0.125000  0.125000  0.823738  1
  Ti  Ti53  1  0.625000  0.125000  0.823738  1
  Ti  Ti54  1  0.125000  0.625000  0.823738  1
  Ti  Ti55  1  0.625000  0.625000  0.823738  1
  Ti  Ti56  1  0.125000  0.375000  0.910084  1
  Ti  Ti57  1  0.625000  0.375000  0.910084  1
  Ti  Ti58  1  0.125000  0.875000  0.910084  1
  Ti  Ti59  1  0.625000  0.875000  0.910084  1
  Ti  Ti60  1  0.375000  0.125000  0.910084  1
  Ti  Ti61  1  0.875000  0.125000  0.910084  1
  Ti  Ti62  1  0.375000  0.625000  0.910084  1
  Ti  Ti63  1  0.875000  0.625000  0.910084  1
  Ti  Ti64  1  0.394821  0.384736  0.661381  1
  Ti  Ti65  1  0.888810  0.376075  0.644674  1
  Ti  Ti66  1  0.387508  0.895281  0.642337  1
  Ti  Ti67  1  0.881769  0.885167  0.673226  1
  Ti  Ti68  1  0.111190  0.123925  0.644674  1
  Ti  Ti69  1  0.605179  0.115264  0.661381  1
  Ti  Ti70  1  0.118231  0.614833  0.673226  1
  Ti  Ti71  1  0.612492  0.604719  0.642337  1
  Ti  Ti72  1  0.155103  0.380124  0.573816  1
  Ti  Ti73  1  0.634128  0.334069  0.567815  1
  Ti  Ti74  1  0.114437  0.853295  0.586515  1
  Ti  Ti75  1  0.663638  0.867523  0.582099  1
  Ti  Ti76  1  0.365872  0.165931  0.567815  1
  Ti  Ti77  1  0.844897  0.119876  0.573816  1
  Ti  Ti78  1  0.336362  0.632477  0.582099  1
  Ti  Ti79  1  0.885563  0.646705  0.586515  1
  Ti  Ti80  1  0.412477  0.426925  0.483660  1
  Ti  Ti81  1  0.903169  0.365501  0.488127  1
  Ti  Ti82  1  0.296262  0.934978  0.490592  1
  Ti  Ti83  1  0.904996  0.894843  0.490377  1
  Ti  Ti84  1  0.096831  0.134499  0.488127  1
  Ti  Ti85  1  0.587523  0.073075  0.483660  1
  Ti  Ti86  1  0.095004  0.605157  0.490377  1
  Ti  Ti87  1  0.703738  0.565022  0.490592  1
  Ti  Ti88  1  0.125000  0.875000  0.737395  1
  Ti  Ti89  1  0.625000  0.875000  0.737395  1
  Ti  Ti90  1  0.375000  0.625000  0.737395  1
  Ti  Ti91  1  0.875000  0.625000  0.737395  1
  Ti  Ti92  1  0.125000  0.375000  0.737395  1
  Ti  Ti93  1  0.625000  0.375000  0.737395  1
  Ti  Ti94  1  0.375000  0.125000  0.737395  1
  Ti  Ti95  1  0.875000  0.125000  0.737395  1
  Sn  Sn96  1  0.500000  0.750000  0.475485  1
