# generated using pymatgen
data_Ti
_symmetry_space_group_name_H-M   'P 1'
_cell_length_a   9.51302000
_cell_length_b   9.35086000
_cell_length_c   18.54723000
_cell_angle_alpha   90.00000000
_cell_angle_beta   90.00000000
_cell_angle_gamma   90.00000000
_symmetry_Int_Tables_number   1
_chemical_formula_structural   Ti
_chemical_formula_sum   Ti97
_cell_volume   1649.86732743
_cell_formula_units_Z   97
loop_
 _symmetry_equiv_pos_site_id
 _symmetry_equiv_pos_as_xyz
  1  'x, y, z'
loop_
 _atom_site_type_symbol
 _atom_site_label
 _atom_site_symmetry_multiplicity
 _atom_site_fract_x
 _atom_site_fract_y
 _atom_site_fract_z
 _atom_site_occupancy
  Ti  Ti0  1  0.145136  0.378631  0.400684  1
  Ti  Ti1  1  0.652480  0.364946  0.394004  1
  Ti  Ti2  1  0.166599  0.881071  0.403204  1
  Ti  Ti3  1  0.644806  0.914135  0.391674  1
  Ti  Ti4  1  0.165155  0.376143  0.235323  1
  Ti  Ti5  1  0.660277  0.382741  0.235917  1
  Ti  Ti6  1  0.157047  0.874773  0.236054  1
  Ti  Ti7  1  0.658587  0.873045  0.235585  1
  Ti  Ti8  1  0.166666  0.375000  0.077689  1
  Ti  Ti9  1  0.666666  0.375000  0.077689  1
  Ti  Ti10  1  0.166666  0.875000  0.077689  1
  Ti  Ti11  1  0.666666  0.875000  0.077689  1
  Ti  Ti12  1  0.406117  0.379359  0.319444  1
  Ti  Ti13  1  0.914894  0.364550  0.307776  1
  Ti  Ti14  1  0.405508  0.873839  0.315667  1
  Ti  Ti15  1  0.904043  0.858318  0.329922  1
  Ti  Ti16  1  0.416667  0.375000  0.155379  1
  Ti  Ti17  1  0.916667  0.375000  0.155379  1
  Ti  Ti18  1  0.416667  0.875000  0.155379  1
  Ti  Ti19  1  0.916667  0.875000  0.155379  1
  Ti  Ti20  1  0.416667  0.375000  0.000000  1
  Ti  Ti21  1  0.916667  0.375000  0.000000  1
  Ti  Ti22  1  0.416667  0.875000  0.000000  1
  Ti  Ti23  1  0.916667  0.875000  0.000000  1
  Ti  Ti24  1  0.093883  0.120641  0.319443  1
  Ti  Ti25  1  0.585106  0.135450  0.307775  1
  Ti  Ti26  1  0.094492  0.626161  0.315666  1
  Ti  Ti27  1  0.595957  0.641682  0.329921  1
  Ti  Ti28  1  0.083333  0.125000  0.155379  1
  Ti  Ti29  1  0.583333  0.125000  0.155379  1
  Ti  Ti30  1  0.083333  0.625000  0.155379  1
  Ti  Ti31  1  0.583333  0.625000  0.155379  1
  Ti  Ti32  1  0.083333  0.125000  0.000000  1
  Ti  Ti33  1  0.583333  0.125000  0.000000  1
  Ti  Ti34  1  0.083333  0.625000  0.000000  1
  Ti  Ti35  1  0.583333  0.625000  0.000000  1
  Ti  Ti36  1  0.354863  0.121369  0.400684  1
  Ti  Ti37  1  0.847519  0.135054  0.394004  1
  Ti  Ti38  1  0.333400  0.618929  0.403204  1
  Ti  Ti39  1  0.855193  0.585865  0.391674  1
  Ti  Ti40  1  0.334844  0.123857  0.235323  1
  Ti  Ti41  1  0.839722  0.117259  0.235917  1
  Ti  Ti42  1  0.342952  0.625227  0.236054  1
  Ti  Ti43  1  0.841412  0.626955  0.235585  1
  Ti  Ti44  1  0.333333  0.125000  0.077689  1
  Ti  Ti45  1  0.833333  0.125000  0.077689  1
  Ti  Ti46  1  0.333333  0.625000  0.077689  1
  Ti  Ti47  1  0.833333  0.625000  0.077689  1
  Ti  Ti48  1  0.375000  0.375000  0.823738  1
  Ti  Ti49  1  0.875000  0.375000  0.823738  1
  Ti  Ti50  1  0.375000  0.875000  0.823738  1
  Ti  Ti51  1  0.875000  0.875000  0.823738  1
  Ti  Ti52  1  0.125000  0.125000  0.823738  1
  Ti  Ti53  1  0.625000  0.125000  0.823738  1
  Ti  Ti54  1  0.125000  0.625000  0.823738  1
  Ti  Ti55  1  0.625000  0.625000  0.823738  1
  Ti  Ti56  1  0.125000  0.375000  0.910084  1
  Ti  Ti57  1  0.625000  0.375000  0.910084  1
  Ti  Ti58  1  0.125000  0.875000  0.910084  1
  Ti  Ti59  1  0.625000  0.875000  0.910084  1
  Ti  Ti60  1  0.375000  0.125000  0.910084  1
  Ti  Ti61  1  0.875000  0.125000  0.910084  1
  Ti  Ti62  1  0.375000  0.625000  0.910084  1
  Ti  Ti63  1  0.875000  0.625000  0.910084  1
  Ti  Ti64  1  0.391628  0.369812  0.644893  1
  Ti  Ti65  1  0.891004  0.363974  0.667331  1
  Ti  Ti66  1  0.384151  0.859839  0.662864  1
  Ti  Ti67  1  0.895889  0.859831  0.643020  1
  Ti  Ti68  1  0.108372  0.130188  0.644893  1
  Ti  Ti69  1  0.608996  0.136026  0.667331  1
  Ti  Ti70  1  0.115849  0.640161  0.662864  1
  Ti  Ti71  1  0.604111  0.640169  0.643020  1
  Ti  Ti72  1  0.136931  0.393913  0.572980  1
  Ti  Ti73  1  0.654048  0.371765  0.580223  1
  Ti  Ti74  1  0.162298  0.877518  0.567059  1
  Ti  Ti75  1  0.626282  0.909614  0.583242  1
  Ti  Ti76  1  0.363069  0.106087  0.572980  1
  Ti  Ti77  1  0.845952  0.128235  0.580223  1
  Ti  Ti78  1  0.337702  0.622482  0.567059  1
  Ti  Ti79  1  0.873718  0.590386  0.583242  1
  Ti  Ti80  1  0.383356  0.358931  0.487762  1
  Ti  Ti81  1  0.900253  0.357564  0.489823  1
  Ti  Ti82  1  0.424485  0.854195  0.481132  1
  Ti  Ti83  1  0.929424  0.922226  0.485037  1
  Ti  Ti84  1  0.116644  0.141069  0.487762  1
  Ti  Ti85  1  0.599747  0.142436  0.489823  1
  Ti  Ti86  1  0.075515  0.645805  0.481132  1
  Ti  Ti87  1  0.570576  0.577774  0.485037  1
  Ti  Ti88  1  0.125000  0.875000  0.737395  1
  Ti  Ti89  1  0.625000  0.875000  0.737395  1
  Ti  Ti90  1  0.375000  0.625000  0.737395  1
  Ti  Ti91  1  0.875000  0.625000  0.737395  1
  Ti  Ti92  1  0.125000  0.375000  0.737395  1
  Ti  Ti93  1  0.625000  0.375000  0.737395  1
  Ti  Ti94  1  0.375000  0.125000  0.737395  1
  Ti  Ti95  1  0.875000  0.125000  0.737395  1
  Ti  Ti96  1  0.750000  0.750000  0.489486  1
