# generated using pymatgen
data_Ti96Al
_symmetry_space_group_name_H-M   'P 1'
_cell_length_a   9.51302000
_cell_length_b   9.35086000
_cell_length_c   18.54723000
_cell_angle_alpha   90.00000000
_cell_angle_beta   90.00000000
_cell_angle_gamma   90.00000000
_symmetry_Int_Tables_number   1
_chemical_formula_structural   Ti96Al
_chemical_formula_sum   'Ti96 Al1'
_cell_volume   1649.86732743
_cell_formula_units_Z   1
loop_
 _symmetry_equiv_pos_site_id
 _symmetry_equiv_pos_as_xyz
  1  'x, y, z'
loop_
 _atom_site_type_symbol
 _atom_site_label
 _atom_site_symmetry_multiplicity
 _atom_site_fract_x
 _atom_site_fract_y
 _atom_site_fract_z
 _atom_site_occupancy
  Ti  Ti0  1  0.137343  0.365834  0.405113  1
  Ti  Ti1  1  0.652898  0.356725  0.405584  1
  Ti  Ti2  1  0.159993  0.862110  0.404044  1
  Ti  Ti3  1  0.681454  0.911948  0.394416  1
  Ti  Ti4  1  0.154086  0.373093  0.239050  1
  Ti  Ti5  1  0.663445  0.371616  0.232693  1
  Ti  Ti6  1  0.163947  0.872677  0.235093  1
  Ti  Ti7  1  0.669323  0.885039  0.235569  1
  Ti  Ti8  1  0.166602  0.375036  0.077496  1
  Ti  Ti9  1  0.666732  0.374969  0.077461  1
  Ti  Ti10  1  0.166645  0.875052  0.077545  1
  Ti  Ti11  1  0.666669  0.875020  0.077623  1
  Ti  Ti12  1  0.407215  0.367607  0.314177  1
  Ti  Ti13  1  0.902334  0.373925  0.319598  1
  Ti  Ti14  1  0.392766  0.906415  0.319975  1
  Ti  Ti15  1  0.918073  0.876972  0.317496  1
  Ti  Ti16  1  0.416663  0.375012  0.155091  1
  Ti  Ti17  1  0.916709  0.374932  0.155050  1
  Ti  Ti18  1  0.416567  0.874943  0.155320  1
  Ti  Ti19  1  0.916728  0.875308  0.155031  1
  Ti  Ti20  1  0.416654  0.375035  -0.000074  1
  Ti  Ti21  1  0.916644  0.374993  -0.000125  1
  Ti  Ti22  1  0.416662  0.874982  0.000014  1
  Ti  Ti23  1  0.916652  0.875012  -0.000100  1
  Ti  Ti24  1  0.097666  0.126077  0.319597  1
  Ti  Ti25  1  0.592785  0.132394  0.314176  1
  Ti  Ti26  1  0.081927  0.623030  0.317495  1
  Ti  Ti27  1  0.607234  0.593587  0.319974  1
  Ti  Ti28  1  0.083291  0.125092  0.155049  1
  Ti  Ti29  1  0.583338  0.125013  0.155091  1
  Ti  Ti30  1  0.083271  0.624717  0.155035  1
  Ti  Ti31  1  0.583434  0.625071  0.155320  1
  Ti  Ti32  1  0.083357  0.125015  -0.000126  1
  Ti  Ti33  1  0.583345  0.124976  -0.000073  1
  Ti  Ti34  1  0.083348  0.624998  -0.000099  1
  Ti  Ti35  1  0.583339  0.625020  0.000013  1
  Ti  Ti36  1  0.347101  0.143276  0.405584  1
  Ti  Ti37  1  0.862656  0.134166  0.405113  1
  Ti  Ti38  1  0.318545  0.588053  0.394416  1
  Ti  Ti39  1  0.840006  0.637891  0.404044  1
  Ti  Ti40  1  0.336555  0.128389  0.232693  1
  Ti  Ti41  1  0.845913  0.126912  0.239050  1
  Ti  Ti42  1  0.330676  0.614965  0.235570  1
  Ti  Ti43  1  0.836052  0.627329  0.235093  1
  Ti  Ti44  1  0.333268  0.125051  0.077461  1
  Ti  Ti45  1  0.833397  0.124984  0.077497  1
  Ti  Ti46  1  0.333330  0.624996  0.077623  1
  Ti  Ti47  1  0.833355  0.624967  0.077546  1
  Ti  Ti48  1  0.375006  0.375027  0.823881  1
  Ti  Ti49  1  0.874925  0.375042  0.823891  1
  Ti  Ti50  1  0.375078  0.874917  0.823810  1
  Ti  Ti51  1  0.874986  0.874973  0.823818  1
  Ti  Ti52  1  0.125079  0.124940  0.823892  1
  Ti  Ti53  1  0.624994  0.124962  0.823881  1
  Ti  Ti54  1  0.125017  0.625013  0.823819  1
  Ti  Ti55  1  0.624927  0.625067  0.823809  1
  Ti  Ti56  1  0.125036  0.375065  0.910138  1
  Ti  Ti57  1  0.624980  0.375072  0.910171  1
  Ti  Ti58  1  0.125093  0.874946  0.910158  1
  Ti  Ti59  1  0.624966  0.874954  0.910213  1
  Ti  Ti60  1  0.375026  0.124915  0.910172  1
  Ti  Ti61  1  0.874966  0.124924  0.910138  1
  Ti  Ti62  1  0.375037  0.625026  0.910212  1
  Ti  Ti63  1  0.874909  0.625038  0.910157  1
  Ti  Ti64  1  0.393148  0.400657  0.652234  1
  Ti  Ti65  1  0.900766  0.375770  0.650732  1
  Ti  Ti66  1  0.388641  0.884179  0.654212  1
  Ti  Ti67  1  0.883110  0.883330  0.662915  1
  Ti  Ti68  1  0.099233  0.124225  0.650733  1
  Ti  Ti69  1  0.606850  0.099339  0.652234  1
  Ti  Ti70  1  0.116889  0.616665  0.662916  1
  Ti  Ti71  1  0.611358  0.615816  0.654212  1
  Ti  Ti72  1  0.152331  0.383242  0.568112  1
  Ti  Ti73  1  0.649166  0.346321  0.583137  1
  Ti  Ti74  1  0.131014  0.862009  0.581226  1
  Ti  Ti75  1  0.648110  0.855189  0.564227  1
  Ti  Ti76  1  0.350833  0.153678  0.583137  1
  Ti  Ti77  1  0.847668  0.116757  0.568112  1
  Ti  Ti78  1  0.351890  0.644810  0.564227  1
  Ti  Ti79  1  0.868986  0.637989  0.581226  1
  Ti  Ti80  1  0.405075  0.381513  0.491129  1
  Ti  Ti81  1  0.894764  0.374869  0.492309  1
  Ti  Ti82  1  0.367337  0.921441  0.503129  1
  Ti  Ti83  1  0.911187  0.877996  0.484111  1
  Ti  Ti84  1  0.105236  0.125131  0.492309  1
  Ti  Ti85  1  0.594925  0.118487  0.491129  1
  Ti  Ti86  1  0.088813  0.622003  0.484111  1
  Ti  Ti87  1  0.632663  0.578559  0.503129  1
  Ti  Ti88  1  0.125207  0.874848  0.737620  1
  Ti  Ti89  1  0.625136  0.875067  0.737567  1
  Ti  Ti90  1  0.374860  0.624917  0.737569  1
  Ti  Ti91  1  0.874788  0.625133  0.737619  1
  Ti  Ti92  1  0.124872  0.374972  0.737701  1
  Ti  Ti93  1  0.624987  0.375065  0.737649  1
  Ti  Ti94  1  0.375007  0.124914  0.737650  1
  Ti  Ti95  1  0.875120  0.125004  0.737700  1
  Al  Al96  1  0.500000  0.750000  0.401385  1
