# generated using pymatgen
data_Ti96Nb
_symmetry_space_group_name_H-M   'P 1'
_cell_length_a   9.51302000
_cell_length_b   9.35086000
_cell_length_c   18.54723000
_cell_angle_alpha   90.00000000
_cell_angle_beta   90.00000000
_cell_angle_gamma   90.00000000
_symmetry_Int_Tables_number   1
_chemical_formula_structural   Ti96Nb
_chemical_formula_sum   'Ti96 Nb1'
_cell_volume   1649.86732743
_cell_formula_units_Z   1
loop_
 _symmetry_equiv_pos_site_id
 _symmetry_equiv_pos_as_xyz
  1  'x, y, z'
loop_
 _atom_site_type_symbol
 _atom_site_label
 _atom_site_symmetry_multiplicity
 _atom_site_fract_x
 _atom_site_fract_y
 _atom_site_fract_z
 _atom_site_occupancy
  Ti  Ti0  1  0.147618  0.372855  0.402511  1
  Ti  Ti1  1  0.660281  0.354818  0.391295  1
  Ti  Ti2  1  0.144031  0.865401  0.398320  1
  Ti  Ti3  1  0.661236  0.860367  0.407236  1
  Ti  Ti4  1  0.162723  0.370167  0.236358  1
  Ti  Ti5  1  0.657468  0.373941  0.234759  1
  Ti  Ti6  1  0.162232  0.873742  0.235281  1
  Ti  Ti7  1  0.660312  0.873040  0.234598  1
  Ti  Ti8  1  0.166661  0.375015  0.077679  1
  Ti  Ti9  1  0.666675  0.374997  0.077668  1
  Ti  Ti10  1  0.166670  0.875006  0.077689  1
  Ti  Ti11  1  0.666670  0.875002  0.077686  1
  Ti  Ti12  1  0.406546  0.386680  0.317878  1
  Ti  Ti13  1  0.910477  0.378528  0.317245  1
  Ti  Ti14  1  0.404082  0.877721  0.319596  1
  Ti  Ti15  1  0.904862  0.878189  0.315176  1
  Ti  Ti16  1  0.416664  0.374972  0.155300  1
  Ti  Ti17  1  0.916684  0.374983  0.155311  1
  Ti  Ti18  1  0.416674  0.875035  0.155321  1
  Ti  Ti19  1  0.916678  0.874979  0.155327  1
  Ti  Ti20  1  0.416659  0.375013  0.000001  1
  Ti  Ti21  1  0.916660  0.375010  -0.000004  1
  Ti  Ti22  1  0.416663  0.875001  -0.000011  1
  Ti  Ti23  1  0.916663  0.874992  -0.000010  1
  Ti  Ti24  1  0.089523  0.121472  0.317244  1
  Ti  Ti25  1  0.593454  0.113320  0.317877  1
  Ti  Ti26  1  0.095138  0.621811  0.315175  1
  Ti  Ti27  1  0.595918  0.622279  0.319595  1
  Ti  Ti28  1  0.083316  0.125022  0.155311  1
  Ti  Ti29  1  0.583336  0.125034  0.155299  1
  Ti  Ti30  1  0.083322  0.625025  0.155327  1
  Ti  Ti31  1  0.583327  0.624970  0.155322  1
  Ti  Ti32  1  0.083340  0.124994  -0.000004  1
  Ti  Ti33  1  0.583341  0.124992  0.000000  1
  Ti  Ti34  1  0.083337  0.625013  -0.000009  1
  Ti  Ti35  1  0.583338  0.625005  -0.000010  1
  Ti  Ti36  1  0.339718  0.145182  0.391295  1
  Ti  Ti37  1  0.852381  0.127145  0.402511  1
  Ti  Ti38  1  0.338763  0.639633  0.407236  1
  Ti  Ti39  1  0.855968  0.634599  0.398320  1
  Ti  Ti40  1  0.342531  0.126060  0.234759  1
  Ti  Ti41  1  0.837276  0.129834  0.236358  1
  Ti  Ti42  1  0.339687  0.626961  0.234598  1
  Ti  Ti43  1  0.837767  0.626259  0.235281  1
  Ti  Ti44  1  0.333324  0.125008  0.077668  1
  Ti  Ti45  1  0.833338  0.124988  0.077679  1
  Ti  Ti46  1  0.333330  0.625003  0.077686  1
  Ti  Ti47  1  0.833330  0.624998  0.077690  1
  Ti  Ti48  1  0.375004  0.374997  0.823876  1
  Ti  Ti49  1  0.874984  0.374939  0.823839  1
  Ti  Ti50  1  0.375048  0.875074  0.823801  1
  Ti  Ti51  1  0.874932  0.875002  0.823791  1
  Ti  Ti52  1  0.125021  0.125056  0.823838  1
  Ti  Ti53  1  0.625000  0.125004  0.823877  1
  Ti  Ti54  1  0.125068  0.624998  0.823792  1
  Ti  Ti55  1  0.624954  0.624922  0.823804  1
  Ti  Ti56  1  0.125013  0.375029  0.910128  1
  Ti  Ti57  1  0.625008  0.375001  0.910153  1
  Ti  Ti58  1  0.125031  0.874997  0.910100  1
  Ti  Ti59  1  0.624991  0.874995  0.910122  1
  Ti  Ti60  1  0.374994  0.124998  0.910151  1
  Ti  Ti61  1  0.874990  0.124972  0.910127  1
  Ti  Ti62  1  0.375012  0.625005  0.910122  1
  Ti  Ti63  1  0.874973  0.625004  0.910101  1
  Ti  Ti64  1  0.382326  0.370958  0.668949  1
  Ti  Ti65  1  0.881125  0.389972  0.647601  1
  Ti  Ti66  1  0.376307  0.889243  0.660990  1
  Ti  Ti67  1  0.903163  0.880289  0.653911  1
  Ti  Ti68  1  0.118874  0.110027  0.647601  1
  Ti  Ti69  1  0.617673  0.129039  0.668949  1
  Ti  Ti70  1  0.096835  0.619709  0.653911  1
  Ti  Ti71  1  0.623693  0.610754  0.660991  1
  Ti  Ti72  1  0.137026  0.358627  0.571877  1
  Ti  Ti73  1  0.630023  0.358382  0.576806  1
  Ti  Ti74  1  0.158357  0.851522  0.565630  1
  Ti  Ti75  1  0.675638  0.920079  0.573918  1
  Ti  Ti76  1  0.369977  0.141617  0.576806  1
  Ti  Ti77  1  0.862973  0.141373  0.571877  1
  Ti  Ti78  1  0.324362  0.579920  0.573919  1
  Ti  Ti79  1  0.841643  0.648478  0.565630  1
  Ti  Ti80  1  0.398246  0.371679  0.479359  1
  Ti  Ti81  1  0.885811  0.382886  0.489613  1
  Ti  Ti82  1  0.375834  -0.073723  0.475108  1
  Ti  Ti83  1  0.914333  0.886409  0.485925  1
  Ti  Ti84  1  0.114189  0.117114  0.489613  1
  Ti  Ti85  1  0.601754  0.128321  0.479359  1
  Ti  Ti86  1  0.085667  0.613591  0.485925  1
  Ti  Ti87  1  0.624166  0.573723  0.475108  1
  Ti  Ti88  1  0.125466  0.875171  0.737565  1
  Ti  Ti89  1  0.625105  0.875092  0.737587  1
  Ti  Ti90  1  0.374889  0.624897  0.737589  1
  Ti  Ti91  1  0.874531  0.624820  0.737571  1
  Ti  Ti92  1  0.125072  0.374915  0.737569  1
  Ti  Ti93  1  0.625075  0.374800  0.737642  1
  Ti  Ti94  1  0.374917  0.125186  0.737639  1
  Ti  Ti95  1  0.874925  0.125076  0.737568  1
  Nb  Nb96  1  0.500000  0.750000  0.546568  1
