# generated using pymatgen
data_Ti96Al
_symmetry_space_group_name_H-M   'P 1'
_cell_length_a   9.51302000
_cell_length_b   9.35086000
_cell_length_c   18.54723000
_cell_angle_alpha   90.00000000
_cell_angle_beta   90.00000000
_cell_angle_gamma   90.00000000
_symmetry_Int_Tables_number   1
_chemical_formula_structural   Ti96Al
_chemical_formula_sum   'Ti96 Al1'
_cell_volume   1649.86732743
_cell_formula_units_Z   1
loop_
 _symmetry_equiv_pos_site_id
 _symmetry_equiv_pos_as_xyz
  1  'x, y, z'
loop_
 _atom_site_type_symbol
 _atom_site_label
 _atom_site_symmetry_multiplicity
 _atom_site_fract_x
 _atom_site_fract_y
 _atom_site_fract_z
 _atom_site_occupancy
  Ti  Ti0  1  0.134674  0.364544  0.404689  1
  Ti  Ti1  1  0.658819  0.360320  0.390882  1
  Ti  Ti2  1  0.158712  0.864906  0.399664  1
  Ti  Ti3  1  0.671195  0.892909  0.405013  1
  Ti  Ti4  1  0.162206  0.375182  0.237419  1
  Ti  Ti5  1  0.659526  0.373389  0.233432  1
  Ti  Ti6  1  0.162474  0.875276  0.234903  1
  Ti  Ti7  1  0.662946  0.872517  0.235142  1
  Ti  Ti8  1  0.166660  0.375023  0.077623  1
  Ti  Ti9  1  0.666671  0.375011  0.077651  1
  Ti  Ti10  1  0.166693  0.874967  0.077680  1
  Ti  Ti11  1  0.666676  0.874975  0.077691  1
  Ti  Ti12  1  0.406306  0.382395  0.315225  1
  Ti  Ti13  1  0.909714  0.377413  0.314639  1
  Ti  Ti14  1  0.407200  0.877744  0.317143  1
  Ti  Ti15  1  0.909786  0.876801  0.317396  1
  Ti  Ti16  1  0.416702  0.375019  0.155219  1
  Ti  Ti17  1  0.916620  0.374956  0.155182  1
  Ti  Ti18  1  0.416655  0.874908  0.155347  1
  Ti  Ti19  1  0.916724  0.874949  0.155201  1
  Ti  Ti20  1  0.416702  0.375066  0.000103  1
  Ti  Ti21  1  0.916594  0.375044  0.000060  1
  Ti  Ti22  1  0.416687  0.874938  0.000157  1
  Ti  Ti23  1  0.916629  0.874961  0.000079  1
  Ti  Ti24  1  0.090286  0.122589  0.314638  1
  Ti  Ti25  1  0.593694  0.117607  0.315224  1
  Ti  Ti26  1  0.090214  0.623200  0.317395  1
  Ti  Ti27  1  0.592800  0.622258  0.317142  1
  Ti  Ti28  1  0.083381  0.125064  0.155182  1
  Ti  Ti29  1  0.583298  0.125001  0.155219  1
  Ti  Ti30  1  0.083276  0.625073  0.155200  1
  Ti  Ti31  1  0.583346  0.625106  0.155345  1
  Ti  Ti32  1  0.083406  0.124961  0.000061  1
  Ti  Ti33  1  0.583300  0.124938  0.000105  1
  Ti  Ti34  1  0.083372  0.625046  0.000079  1
  Ti  Ti35  1  0.583315  0.625061  0.000157  1
  Ti  Ti36  1  0.341180  0.139681  0.390882  1
  Ti  Ti37  1  0.865325  0.135457  0.404689  1
  Ti  Ti38  1  0.328803  0.607091  0.405013  1
  Ti  Ti39  1  0.841287  0.635094  0.399664  1
  Ti  Ti40  1  0.340473  0.126615  0.233432  1
  Ti  Ti41  1  0.837793  0.124823  0.237419  1
  Ti  Ti42  1  0.337053  0.627487  0.235142  1
  Ti  Ti43  1  0.837525  0.624729  0.234903  1
  Ti  Ti44  1  0.333328  0.125002  0.077651  1
  Ti  Ti45  1  0.833340  0.124993  0.077624  1
  Ti  Ti46  1  0.333323  0.625039  0.077691  1
  Ti  Ti47  1  0.833306  0.625048  0.077680  1
  Ti  Ti48  1  0.375026  0.375032  0.823987  1
  Ti  Ti49  1  0.874931  0.374912  0.824000  1
  Ti  Ti50  1  0.375018  0.874995  0.823877  1
  Ti  Ti51  1  0.875045  0.875008  0.823951  1
  Ti  Ti52  1  0.125071  0.125072  0.824000  1
  Ti  Ti53  1  0.624985  0.124973  0.823988  1
  Ti  Ti54  1  0.124961  0.624993  0.823953  1
  Ti  Ti55  1  0.624987  0.624989  0.823878  1
  Ti  Ti56  1  0.124990  0.375028  0.910235  1
  Ti  Ti57  1  0.624989  0.374987  0.910221  1
  Ti  Ti58  1  0.125053  0.874979  0.910204  1
  Ti  Ti59  1  0.624955  0.874954  0.910208  1
  Ti  Ti60  1  0.375017  0.125011  0.910223  1
  Ti  Ti61  1  0.875016  0.124969  0.910235  1
  Ti  Ti62  1  0.375050  0.625040  0.910207  1
  Ti  Ti63  1  0.874955  0.625020  0.910204  1
  Ti  Ti64  1  0.384954  0.387202  0.661873  1
  Ti  Ti65  1  0.886996  0.387574  0.649130  1
  Ti  Ti66  1  0.381107  0.883809  0.661544  1
  Ti  Ti67  1  0.896256  0.881877  0.657662  1
  Ti  Ti68  1  0.113002  0.112422  0.649130  1
  Ti  Ti69  1  0.615043  0.112791  0.661873  1
  Ti  Ti70  1  0.103740  0.618116  0.657663  1
  Ti  Ti71  1  0.618892  0.616186  0.661545  1
  Ti  Ti72  1  0.136949  0.368705  0.569460  1
  Ti  Ti73  1  0.636631  0.352217  0.583440  1
  Ti  Ti74  1  0.152206  0.852398  0.572135  1
  Ti  Ti75  1  0.667147  0.901198  0.568756  1
  Ti  Ti76  1  0.363369  0.147781  0.583440  1
  Ti  Ti77  1  0.863050  0.131293  0.569459  1
  Ti  Ti78  1  0.332852  0.598800  0.568755  1
  Ti  Ti79  1  0.847793  0.647600  0.572135  1
  Ti  Ti80  1  0.399197  0.363609  0.484250  1
  Ti  Ti81  1  0.883038  0.382069  0.491994  1
  Ti  Ti82  1  0.367183  0.944356  0.487031  1
  Ti  Ti83  1  0.917114  0.883042  0.484149  1
  Ti  Ti84  1  0.116961  0.117931  0.491994  1
  Ti  Ti85  1  0.600803  0.136391  0.484250  1
  Ti  Ti86  1  0.082885  0.616958  0.484149  1
  Ti  Ti87  1  0.632817  0.555643  0.487031  1
  Ti  Ti88  1  0.125480  0.875109  0.737783  1
  Ti  Ti89  1  0.624978  0.874631  0.737804  1
  Ti  Ti90  1  0.375009  0.625343  0.737797  1
  Ti  Ti91  1  0.874511  0.624868  0.737791  1
  Ti  Ti92  1  0.124681  0.374896  0.737879  1
  Ti  Ti93  1  0.625269  0.374803  0.737769  1
  Ti  Ti94  1  0.374722  0.125175  0.737770  1
  Ti  Ti95  1  0.875306  0.125075  0.737873  1
  Al  Al96  1  0.500000  0.750000  0.498128  1
