# generated using pymatgen
data_Ti96Mo
_symmetry_space_group_name_H-M   'P 1'
_cell_length_a   9.51302000
_cell_length_b   9.35086000
_cell_length_c   18.54723000
_cell_angle_alpha   90.00000000
_cell_angle_beta   90.00000000
_cell_angle_gamma   90.00000000
_symmetry_Int_Tables_number   1
_chemical_formula_structural   Ti96Mo
_chemical_formula_sum   'Ti96 Mo1'
_cell_volume   1649.86732743
_cell_formula_units_Z   1
loop_
 _symmetry_equiv_pos_site_id
 _symmetry_equiv_pos_as_xyz
  1  'x, y, z'
loop_
 _atom_site_type_symbol
 _atom_site_label
 _atom_site_symmetry_multiplicity
 _atom_site_fract_x
 _atom_site_fract_y
 _atom_site_fract_z
 _atom_site_occupancy
  Ti  Ti0  1  0.133985  0.360719  0.404327  1
  Ti  Ti1  1  0.653417  0.353883  0.400727  1
  Ti  Ti2  1  0.167463  0.856485  0.401599  1
  Ti  Ti3  1  0.676647  0.914281  0.405771  1
  Ti  Ti4  1  0.158835  0.377455  0.237520  1
  Ti  Ti5  1  0.664742  0.368732  0.229360  1
  Ti  Ti6  1  0.158706  0.872207  0.234139  1
  Ti  Ti7  1  0.657218  0.862812  0.243801  1
  Ti  Ti8  1  0.166666  0.374984  0.077598  1
  Ti  Ti9  1  0.666669  0.374993  0.077657  1
  Ti  Ti10  1  0.166692  0.875020  0.077641  1
  Ti  Ti11  1  0.666668  0.875028  0.077635  1
  Ti  Ti12  1  0.404776  0.370702  0.312741  1
  Ti  Ti13  1  0.901236  0.379552  0.317601  1
  Ti  Ti14  1  0.400242  0.902346  0.314728  1
  Ti  Ti15  1  0.914447  0.878794  0.320508  1
  Ti  Ti16  1  0.416690  0.374876  0.155220  1
  Ti  Ti17  1  0.916590  0.374974  0.155188  1
  Ti  Ti18  1  0.416641  0.875068  0.155273  1
  Ti  Ti19  1  0.916798  0.875011  0.155160  1
  Ti  Ti20  1  0.416692  0.375033  0.000059  1
  Ti  Ti21  1  0.916602  0.375023  0.000011  1
  Ti  Ti22  1  0.416685  0.874974  0.000112  1
  Ti  Ti23  1  0.916635  0.874986  0.000034  1
  Ti  Ti24  1  0.098764  0.120449  0.317600  1
  Ti  Ti25  1  0.595224  0.129300  0.312740  1
  Ti  Ti26  1  0.085553  0.621208  0.320507  1
  Ti  Ti27  1  0.599758  0.597656  0.314727  1
  Ti  Ti28  1  0.083410  0.125046  0.155188  1
  Ti  Ti29  1  0.583310  0.125145  0.155219  1
  Ti  Ti30  1  0.083201  0.625012  0.155161  1
  Ti  Ti31  1  0.583361  0.624950  0.155274  1
  Ti  Ti32  1  0.083399  0.124984  0.000011  1
  Ti  Ti33  1  0.583309  0.124972  0.000059  1
  Ti  Ti34  1  0.083364  0.625023  0.000035  1
  Ti  Ti35  1  0.583317  0.625025  0.000114  1
  Ti  Ti36  1  0.346582  0.146117  0.400727  1
  Ti  Ti37  1  0.866014  0.139282  0.404327  1
  Ti  Ti38  1  0.323352  0.585719  0.405771  1
  Ti  Ti39  1  0.832536  0.643515  0.401599  1
  Ti  Ti40  1  0.335258  0.131272  0.229360  1
  Ti  Ti41  1  0.841164  0.122550  0.237520  1
  Ti  Ti42  1  0.342781  0.637193  0.243801  1
  Ti  Ti43  1  0.841293  0.627798  0.234139  1
  Ti  Ti44  1  0.333330  0.125021  0.077657  1
  Ti  Ti45  1  0.833334  0.125033  0.077598  1
  Ti  Ti46  1  0.333332  0.624988  0.077636  1
  Ti  Ti47  1  0.833307  0.624995  0.077642  1
  Ti  Ti48  1  0.374937  0.375029  0.823997  1
  Ti  Ti49  1  0.874969  0.374912  0.823924  1
  Ti  Ti50  1  0.375022  0.874970  0.823954  1
  Ti  Ti51  1  0.875086  0.875032  0.823912  1
  Ti  Ti52  1  0.125039  0.125078  0.823925  1
  Ti  Ti53  1  0.625065  0.124968  0.823997  1
  Ti  Ti54  1  0.124915  0.624967  0.823914  1
  Ti  Ti55  1  0.624987  0.625005  0.823954  1
  Ti  Ti56  1  0.124947  0.375021  0.910176  1
  Ti  Ti57  1  0.625017  0.374976  0.910203  1
  Ti  Ti58  1  0.125030  0.874982  0.910183  1
  Ti  Ti59  1  0.625002  0.874983  0.910196  1
  Ti  Ti60  1  0.374986  0.125016  0.910205  1
  Ti  Ti61  1  0.875057  0.124974  0.910175  1
  Ti  Ti62  1  0.375004  0.625009  0.910197  1
  Ti  Ti63  1  0.874976  0.625012  0.910183  1
  Ti  Ti64  1  0.385988  0.389143  0.659734  1
  Ti  Ti65  1  0.895395  0.386698  0.650046  1
  Ti  Ti66  1  0.388095  0.879138  0.657139  1
  Ti  Ti67  1  0.893225  0.884505  0.655991  1
  Ti  Ti68  1  0.104605  0.113297  0.650046  1
  Ti  Ti69  1  0.614010  0.110850  0.659734  1
  Ti  Ti70  1  0.106773  0.615490  0.655991  1
  Ti  Ti71  1  0.611903  0.620855  0.657139  1
  Ti  Ti72  1  0.142483  0.366838  0.568173  1
  Ti  Ti73  1  0.645617  0.358177  0.586089  1
  Ti  Ti74  1  0.147615  0.854641  0.573718  1
  Ti  Ti75  1  0.656880  0.878409  0.565239  1
  Ti  Ti76  1  0.354382  0.141821  0.586089  1
  Ti  Ti77  1  0.857517  0.133161  0.568173  1
  Ti  Ti78  1  0.343120  0.621589  0.565239  1
  Ti  Ti79  1  0.852384  0.645357  0.573719  1
  Ti  Ti80  1  0.400690  0.363000  0.493611  1
  Ti  Ti81  1  0.885652  0.386023  0.491132  1
  Ti  Ti82  1  0.381584  0.931204  0.494918  1
  Ti  Ti83  1  0.918640  0.883764  0.484474  1
  Ti  Ti84  1  0.114348  0.113977  0.491132  1
  Ti  Ti85  1  0.599310  0.137000  0.493611  1
  Ti  Ti86  1  0.081360  0.616236  0.484474  1
  Ti  Ti87  1  0.618416  0.568795  0.494918  1
  Ti  Ti88  1  0.125271  0.874825  0.737741  1
  Ti  Ti89  1  0.625169  0.874856  0.737762  1
  Ti  Ti90  1  0.374820  0.625119  0.737762  1
  Ti  Ti91  1  0.874722  0.625153  0.737742  1
  Ti  Ti92  1  0.124465  0.375005  0.737669  1
  Ti  Ti93  1  0.625147  0.374725  0.737807  1
  Ti  Ti94  1  0.374841  0.125248  0.737805  1
  Ti  Ti95  1  0.875531  0.124978  0.737663  1
  Mo  Mo96  1  0.500000  0.750000  0.446164  1
