# generated using pymatgen
data_Ti
_symmetry_space_group_name_H-M   'P 1'
_cell_length_a   9.51302000
_cell_length_b   9.35086000
_cell_length_c   18.54723000
_cell_angle_alpha   90.00000000
_cell_angle_beta   90.00000000
_cell_angle_gamma   90.00000000
_symmetry_Int_Tables_number   1
_chemical_formula_structural   Ti
_chemical_formula_sum   Ti97
_cell_volume   1649.86732743
_cell_formula_units_Z   97
loop_
 _symmetry_equiv_pos_site_id
 _symmetry_equiv_pos_as_xyz
  1  'x, y, z'
loop_
 _atom_site_type_symbol
 _atom_site_label
 _atom_site_symmetry_multiplicity
 _atom_site_fract_x
 _atom_site_fract_y
 _atom_site_fract_z
 _atom_site_occupancy
  Ti  Ti0  1  0.143757  0.377699  0.406145  1
  Ti  Ti1  1  0.649754  0.363942  0.408266  1
  Ti  Ti2  1  0.166942  0.883022  0.401001  1
  Ti  Ti3  1  0.627520  0.930948  0.418064  1
  Ti  Ti4  1  0.158719  0.378170  0.236913  1
  Ti  Ti5  1  0.658995  0.373653  0.233285  1
  Ti  Ti6  1  0.163105  0.876906  0.237215  1
  Ti  Ti7  1  0.653102  0.887114  0.230751  1
  Ti  Ti8  1  0.166642  0.375006  0.077439  1
  Ti  Ti9  1  0.666705  0.375021  0.077513  1
  Ti  Ti10  1  0.166683  0.874986  0.077460  1
  Ti  Ti11  1  0.666673  0.875001  0.077663  1
  Ti  Ti12  1  0.397072  0.363776  0.321077  1
  Ti  Ti13  1  0.904491  0.367064  0.316544  1
  Ti  Ti14  1  0.417228  0.864141  0.320487  1
  Ti  Ti15  1  0.926792  0.904695  0.323498  1
  Ti  Ti16  1  0.416683  0.375025  0.154992  1
  Ti  Ti17  1  0.916719  0.375037  0.155090  1
  Ti  Ti18  1  0.416791  0.875119  0.155141  1
  Ti  Ti19  1  0.916560  0.874937  0.155182  1
  Ti  Ti20  1  0.416683  0.375019  -0.000136  1
  Ti  Ti21  1  0.916619  0.375015  -0.000096  1
  Ti  Ti22  1  0.416727  0.875002  -0.000080  1
  Ti  Ti23  1  0.916592  0.874973  -0.000054  1
  Ti  Ti24  1  0.102928  0.136225  0.321076  1
  Ti  Ti25  1  0.595509  0.132937  0.316543  1
  Ti  Ti26  1  0.082772  0.635861  0.320486  1
  Ti  Ti27  1  0.573208  0.595306  0.323498  1
  Ti  Ti28  1  0.083323  0.124999  0.154992  1
  Ti  Ti29  1  0.583278  0.124982  0.155091  1
  Ti  Ti30  1  0.083212  0.624897  0.155143  1
  Ti  Ti31  1  0.583439  0.625080  0.155182  1
  Ti  Ti32  1  0.083320  0.124990  -0.000136  1
  Ti  Ti33  1  0.583376  0.124990  -0.000095  1
  Ti  Ti34  1  0.083275  0.625000  -0.000081  1
  Ti  Ti35  1  0.583406  0.625031  -0.000056  1
  Ti  Ti36  1  0.356242  0.122302  0.406145  1
  Ti  Ti37  1  0.850245  0.136058  0.408266  1
  Ti  Ti38  1  0.333057  0.616978  0.401001  1
  Ti  Ti39  1  0.872479  0.569053  0.418065  1
  Ti  Ti40  1  0.341281  0.121834  0.236913  1
  Ti  Ti41  1  0.841004  0.126352  0.233285  1
  Ti  Ti42  1  0.336895  0.623099  0.237215  1
  Ti  Ti43  1  0.846897  0.612891  0.230751  1
  Ti  Ti44  1  0.333358  0.125011  0.077440  1
  Ti  Ti45  1  0.833294  0.124994  0.077514  1
  Ti  Ti46  1  0.333315  0.625032  0.077459  1
  Ti  Ti47  1  0.833327  0.625009  0.077662  1
  Ti  Ti48  1  0.374961  0.375047  0.823800  1
  Ti  Ti49  1  0.874967  0.375014  0.823825  1
  Ti  Ti50  1  0.375046  0.874962  0.823816  1
  Ti  Ti51  1  0.875025  0.874925  0.823675  1
  Ti  Ti52  1  0.125039  0.124942  0.823800  1
  Ti  Ti53  1  0.625034  0.124975  0.823826  1
  Ti  Ti54  1  0.124956  0.625022  0.823815  1
  Ti  Ti55  1  0.624981  0.625066  0.823675  1
  Ti  Ti56  1  0.124928  0.375040  0.910087  1
  Ti  Ti57  1  0.625049  0.375099  0.910102  1
  Ti  Ti58  1  0.124902  0.874954  0.910095  1
  Ti  Ti59  1  0.625099  0.874928  0.910130  1
  Ti  Ti60  1  0.375076  0.124950  0.910088  1
  Ti  Ti61  1  0.874954  0.124891  0.910103  1
  Ti  Ti62  1  0.375101  0.625033  0.910094  1
  Ti  Ti63  1  0.874903  0.625058  0.910128  1
  Ti  Ti64  1  0.397497  0.363374  0.648759  1
  Ti  Ti65  1  0.893946  0.363848  0.657494  1
  Ti  Ti66  1  0.384713  0.865794  0.661614  1
  Ti  Ti67  1  0.888017  0.865997  0.660666  1
  Ti  Ti68  1  0.102502  0.136623  0.648759  1
  Ti  Ti69  1  0.606053  0.136148  0.657494  1
  Ti  Ti70  1  0.115285  0.634201  0.661614  1
  Ti  Ti71  1  0.611982  0.633999  0.660666  1
  Ti  Ti72  1  0.152556  0.389400  0.572782  1
  Ti  Ti73  1  0.654602  0.396222  0.575239  1
  Ti  Ti74  1  0.141756  0.881253  0.577996  1
  Ti  Ti75  1  0.631902  0.883172  0.579646  1
  Ti  Ti76  1  0.347444  0.110599  0.572782  1
  Ti  Ti77  1  0.845397  0.103777  0.575239  1
  Ti  Ti78  1  0.358244  0.618746  0.577996  1
  Ti  Ti79  1  0.868098  0.616827  0.579646  1
  Ti  Ti80  1  0.395683  0.370887  0.490843  1
  Ti  Ti81  1  0.906360  0.352390  0.500974  1
  Ti  Ti82  1  0.391653  0.856580  0.491192  1
  Ti  Ti83  1  0.910818  0.875693  0.481672  1
  Ti  Ti84  1  0.104317  0.129112  0.490843  1
  Ti  Ti85  1  0.593639  0.147610  0.500974  1
  Ti  Ti86  1  0.108347  0.643420  0.491191  1
  Ti  Ti87  1  0.589181  0.624306  0.481672  1
  Ti  Ti88  1  0.125122  0.874996  0.737501  1
  Ti  Ti89  1  0.625137  0.874947  0.737480  1
  Ti  Ti90  1  0.374874  0.624989  0.737501  1
  Ti  Ti91  1  0.874859  0.625040  0.737480  1
  Ti  Ti92  1  0.125041  0.374941  0.737572  1
  Ti  Ti93  1  0.624787  0.375285  0.737552  1
  Ti  Ti94  1  0.374954  0.125040  0.737572  1
  Ti  Ti95  1  0.875208  0.124698  0.737555  1
  Ti  Ti96  1  0.750000  0.750000  0.371605  1
