# generated using pymatgen
data_Ti96Mo
_symmetry_space_group_name_H-M   'P 1'
_cell_length_a   9.51302000
_cell_length_b   9.35086000
_cell_length_c   18.54723000
_cell_angle_alpha   90.00000000
_cell_angle_beta   90.00000000
_cell_angle_gamma   90.00000000
_symmetry_Int_Tables_number   1
_chemical_formula_structural   Ti96Mo
_chemical_formula_sum   'Ti96 Mo1'
_cell_volume   1649.86732743
_cell_formula_units_Z   1
loop_
 _symmetry_equiv_pos_site_id
 _symmetry_equiv_pos_as_xyz
  1  'x, y, z'
loop_
 _atom_site_type_symbol
 _atom_site_label
 _atom_site_symmetry_multiplicity
 _atom_site_fract_x
 _atom_site_fract_y
 _atom_site_fract_z
 _atom_site_occupancy
  Ti  Ti0  1  0.148577  0.374820  0.398372  1
  Ti  Ti1  1  0.649261  0.385880  0.405111  1
  Ti  Ti2  1  0.159671  0.890634  0.387112  1
  Ti  Ti3  1  0.653106  0.898283  0.418127  1
  Ti  Ti4  1  0.160196  0.378598  0.238754  1
  Ti  Ti5  1  0.661336  0.375632  0.233137  1
  Ti  Ti6  1  0.157809  0.876181  0.235947  1
  Ti  Ti7  1  0.662952  0.878045  0.231298  1
  Ti  Ti8  1  0.166666  0.375000  0.077689  1
  Ti  Ti9  1  0.666666  0.375000  0.077689  1
  Ti  Ti10  1  0.166666  0.875000  0.077689  1
  Ti  Ti11  1  0.666666  0.875000  0.077689  1
  Ti  Ti12  1  0.416284  0.369364  0.315483  1
  Ti  Ti13  1  0.898615  0.380687  0.318950  1
  Ti  Ti14  1  0.419164  0.872277  0.318470  1
  Ti  Ti15  1  0.891114  0.874594  0.318090  1
  Ti  Ti16  1  0.416667  0.375000  0.155379  1
  Ti  Ti17  1  0.916667  0.375000  0.155379  1
  Ti  Ti18  1  0.416667  0.875000  0.155379  1
  Ti  Ti19  1  0.916667  0.875000  0.155379  1
  Ti  Ti20  1  0.416667  0.375000  0.000000  1
  Ti  Ti21  1  0.916667  0.375000  0.000000  1
  Ti  Ti22  1  0.416667  0.875000  0.000000  1
  Ti  Ti23  1  0.916667  0.875000  0.000000  1
  Ti  Ti24  1  0.083716  0.130636  0.315482  1
  Ti  Ti25  1  0.601385  0.119313  0.318949  1
  Ti  Ti26  1  0.080836  0.627723  0.318469  1
  Ti  Ti27  1  0.608886  0.625406  0.318089  1
  Ti  Ti28  1  0.083333  0.125000  0.155379  1
  Ti  Ti29  1  0.583333  0.125000  0.155379  1
  Ti  Ti30  1  0.083333  0.625000  0.155379  1
  Ti  Ti31  1  0.583333  0.625000  0.155379  1
  Ti  Ti32  1  0.083333  0.125000  0.000000  1
  Ti  Ti33  1  0.583333  0.125000  0.000000  1
  Ti  Ti34  1  0.083333  0.625000  0.000000  1
  Ti  Ti35  1  0.583333  0.625000  0.000000  1
  Ti  Ti36  1  0.351422  0.125180  0.398372  1
  Ti  Ti37  1  0.850738  0.114120  0.405111  1
  Ti  Ti38  1  0.340328  0.609366  0.387112  1
  Ti  Ti39  1  0.846893  0.601717  0.418127  1
  Ti  Ti40  1  0.339803  0.121402  0.238754  1
  Ti  Ti41  1  0.838663  0.124368  0.233137  1
  Ti  Ti42  1  0.342190  0.623819  0.235947  1
  Ti  Ti43  1  0.837047  0.621955  0.231298  1
  Ti  Ti44  1  0.333333  0.125000  0.077689  1
  Ti  Ti45  1  0.833333  0.125000  0.077689  1
  Ti  Ti46  1  0.333333  0.625000  0.077689  1
  Ti  Ti47  1  0.833333  0.625000  0.077689  1
  Ti  Ti48  1  0.375000  0.375000  0.823738  1
  Ti  Ti49  1  0.875000  0.375000  0.823738  1
  Ti  Ti50  1  0.375000  0.875000  0.823738  1
  Ti  Ti51  1  0.875000  0.875000  0.823738  1
  Ti  Ti52  1  0.125000  0.125000  0.823738  1
  Ti  Ti53  1  0.625000  0.125000  0.823738  1
  Ti  Ti54  1  0.125000  0.625000  0.823738  1
  Ti  Ti55  1  0.625000  0.625000  0.823738  1
  Ti  Ti56  1  0.125000  0.375000  0.910084  1
  Ti  Ti57  1  0.625000  0.375000  0.910084  1
  Ti  Ti58  1  0.125000  0.875000  0.910084  1
  Ti  Ti59  1  0.625000  0.875000  0.910084  1
  Ti  Ti60  1  0.375000  0.125000  0.910084  1
  Ti  Ti61  1  0.875000  0.125000  0.910084  1
  Ti  Ti62  1  0.375000  0.625000  0.910084  1
  Ti  Ti63  1  0.875000  0.625000  0.910084  1
  Ti  Ti64  1  0.401826  0.376170  0.646374  1
  Ti  Ti65  1  0.882763  0.338905  0.647991  1
  Ti  Ti66  1  0.367423  0.875884  0.675017  1
  Ti  Ti67  1  0.883125  0.874542  0.661594  1
  Ti  Ti68  1  0.098174  0.123830  0.646374  1
  Ti  Ti69  1  0.617237  0.161095  0.647991  1
  Ti  Ti70  1  0.132577  0.624116  0.675017  1
  Ti  Ti71  1  0.616875  0.625458  0.661594  1
  Ti  Ti72  1  0.153132  0.379301  0.574533  1
  Ti  Ti73  1  0.663123  0.420054  0.558659  1
  Ti  Ti74  1  0.138996  0.868975  0.579633  1
  Ti  Ti75  1  0.563677  0.916514  0.577835  1
  Ti  Ti76  1  0.346868  0.120699  0.574533  1
  Ti  Ti77  1  0.836877  0.079946  0.558659  1
  Ti  Ti78  1  0.361004  0.631025  0.579633  1
  Ti  Ti79  1  0.936323  0.583486  0.577835  1
  Ti  Ti80  1  0.392577  0.376878  0.489488  1
  Ti  Ti81  1  0.903292  0.341387  0.488572  1
  Ti  Ti82  1  0.360096  0.863333  0.478928  1
  Ti  Ti83  1  -0.068541  -0.141311  0.473544  1
  Ti  Ti84  1  0.107423  0.123122  0.489488  1
  Ti  Ti85  1  0.596708  0.158613  0.488572  1
  Ti  Ti86  1  0.139904  0.636667  0.478928  1
  Ti  Ti87  1  0.568541  0.641311  0.473544  1
  Ti  Ti88  1  0.125000  0.875000  0.737395  1
  Ti  Ti89  1  0.625000  0.875000  0.737395  1
  Ti  Ti90  1  0.375000  0.625000  0.737395  1
  Ti  Ti91  1  0.875000  0.625000  0.737395  1
  Ti  Ti92  1  0.125000  0.375000  0.737395  1
  Ti  Ti93  1  0.625000  0.375000  0.737395  1
  Ti  Ti94  1  0.375000  0.125000  0.737395  1
  Ti  Ti95  1  0.875000  0.125000  0.737395  1
  Mo  Mo96  1  0.750000  0.750000  0.560751  1
