# generated using pymatgen
data_Ti96Nb
_symmetry_space_group_name_H-M   'P 1'
_cell_length_a   9.51302000
_cell_length_b   9.35086000
_cell_length_c   18.54723000
_cell_angle_alpha   90.00000000
_cell_angle_beta   90.00000000
_cell_angle_gamma   90.00000000
_symmetry_Int_Tables_number   1
_chemical_formula_structural   Ti96Nb
_chemical_formula_sum   'Ti96 Nb1'
_cell_volume   1649.86732743
_cell_formula_units_Z   1
loop_
 _symmetry_equiv_pos_site_id
 _symmetry_equiv_pos_as_xyz
  1  'x, y, z'
loop_
 _atom_site_type_symbol
 _atom_site_label
 _atom_site_symmetry_multiplicity
 _atom_site_fract_x
 _atom_site_fract_y
 _atom_site_fract_z
 _atom_site_occupancy
  Ti  Ti0  1  0.148219  0.374802  0.398464  1
  Ti  Ti1  1  0.648501  0.382936  0.403004  1
  Ti  Ti2  1  0.161360  0.891411  0.386682  1
  Ti  Ti3  1  0.656248  0.894385  0.415484  1
  Ti  Ti4  1  0.160651  0.378782  0.238319  1
  Ti  Ti5  1  0.661478  0.375259  0.233727  1
  Ti  Ti6  1  0.158708  0.875952  0.235316  1
  Ti  Ti7  1  0.663209  0.877802  0.231766  1
  Ti  Ti8  1  0.166666  0.375000  0.077689  1
  Ti  Ti9  1  0.666666  0.375000  0.077689  1
  Ti  Ti10  1  0.166666  0.875000  0.077689  1
  Ti  Ti11  1  0.666666  0.875000  0.077689  1
  Ti  Ti12  1  0.415059  0.368991  0.314952  1
  Ti  Ti13  1  0.900400  0.380393  0.318125  1
  Ti  Ti14  1  0.418488  0.872155  0.318359  1
  Ti  Ti15  1  0.894615  0.874241  0.317013  1
  Ti  Ti16  1  0.416667  0.375000  0.155379  1
  Ti  Ti17  1  0.916667  0.375000  0.155379  1
  Ti  Ti18  1  0.416667  0.875000  0.155379  1
  Ti  Ti19  1  0.916667  0.875000  0.155379  1
  Ti  Ti20  1  0.416667  0.375000  0.000000  1
  Ti  Ti21  1  0.916667  0.375000  0.000000  1
  Ti  Ti22  1  0.416667  0.875000  0.000000  1
  Ti  Ti23  1  0.916667  0.875000  0.000000  1
  Ti  Ti24  1  0.084941  0.131009  0.314951  1
  Ti  Ti25  1  0.599600  0.119607  0.318124  1
  Ti  Ti26  1  0.081512  0.627845  0.318358  1
  Ti  Ti27  1  0.605385  0.625759  0.317012  1
  Ti  Ti28  1  0.083333  0.125000  0.155379  1
  Ti  Ti29  1  0.583333  0.125000  0.155379  1
  Ti  Ti30  1  0.083333  0.625000  0.155379  1
  Ti  Ti31  1  0.583333  0.625000  0.155379  1
  Ti  Ti32  1  0.083333  0.125000  0.000000  1
  Ti  Ti33  1  0.583333  0.125000  0.000000  1
  Ti  Ti34  1  0.083333  0.625000  0.000000  1
  Ti  Ti35  1  0.583333  0.625000  0.000000  1
  Ti  Ti36  1  0.351780  0.125198  0.398464  1
  Ti  Ti37  1  0.851498  0.117064  0.403004  1
  Ti  Ti38  1  0.338639  0.608589  0.386682  1
  Ti  Ti39  1  0.843751  0.605615  0.415484  1
  Ti  Ti40  1  0.339348  0.121218  0.238319  1
  Ti  Ti41  1  0.838521  0.124741  0.233727  1
  Ti  Ti42  1  0.341291  0.624048  0.235316  1
  Ti  Ti43  1  0.836790  0.622198  0.231766  1
  Ti  Ti44  1  0.333333  0.125000  0.077689  1
  Ti  Ti45  1  0.833333  0.125000  0.077689  1
  Ti  Ti46  1  0.333333  0.625000  0.077689  1
  Ti  Ti47  1  0.833333  0.625000  0.077689  1
  Ti  Ti48  1  0.375000  0.375000  0.823738  1
  Ti  Ti49  1  0.875000  0.375000  0.823738  1
  Ti  Ti50  1  0.375000  0.875000  0.823738  1
  Ti  Ti51  1  0.875000  0.875000  0.823738  1
  Ti  Ti52  1  0.125000  0.125000  0.823738  1
  Ti  Ti53  1  0.625000  0.125000  0.823738  1
  Ti  Ti54  1  0.125000  0.625000  0.823738  1
  Ti  Ti55  1  0.625000  0.625000  0.823738  1
  Ti  Ti56  1  0.125000  0.375000  0.910084  1
  Ti  Ti57  1  0.625000  0.375000  0.910084  1
  Ti  Ti58  1  0.125000  0.875000  0.910084  1
  Ti  Ti59  1  0.625000  0.875000  0.910084  1
  Ti  Ti60  1  0.375000  0.125000  0.910084  1
  Ti  Ti61  1  0.875000  0.125000  0.910084  1
  Ti  Ti62  1  0.375000  0.625000  0.910084  1
  Ti  Ti63  1  0.875000  0.625000  0.910084  1
  Ti  Ti64  1  0.401324  0.377159  0.646815  1
  Ti  Ti65  1  0.880803  0.340079  0.647975  1
  Ti  Ti66  1  0.365726  0.876710  0.675171  1
  Ti  Ti67  1  0.882673  0.877946  0.663047  1
  Ti  Ti68  1  0.098676  0.122841  0.646815  1
  Ti  Ti69  1  0.619197  0.159921  0.647975  1
  Ti  Ti70  1  0.134274  0.623290  0.675171  1
  Ti  Ti71  1  0.617327  0.622054  0.663047  1
  Ti  Ti72  1  0.152530  0.378436  0.575082  1
  Ti  Ti73  1  0.661077  0.418225  0.557821  1
  Ti  Ti74  1  0.136082  0.867240  0.580243  1
  Ti  Ti75  1  0.559788  0.918331  0.578559  1
  Ti  Ti76  1  0.347470  0.121564  0.575082  1
  Ti  Ti77  1  0.838923  0.081775  0.557821  1
  Ti  Ti78  1  0.363918  0.632760  0.580243  1
  Ti  Ti79  1  0.940212  0.581669  0.578559  1
  Ti  Ti80  1  0.390854  0.374721  0.489274  1
  Ti  Ti81  1  0.902986  0.344640  0.488270  1
  Ti  Ti82  1  0.359346  0.863837  0.479357  1
  Ti  Ti83  1  -0.062059  -0.134973  0.471099  1
  Ti  Ti84  1  0.109146  0.125279  0.489274  1
  Ti  Ti85  1  0.597014  0.155360  0.488270  1
  Ti  Ti86  1  0.140654  0.636163  0.479357  1
  Ti  Ti87  1  0.562059  0.634973  0.471099  1
  Ti  Ti88  1  0.125000  0.875000  0.737395  1
  Ti  Ti89  1  0.625000  0.875000  0.737395  1
  Ti  Ti90  1  0.375000  0.625000  0.737395  1
  Ti  Ti91  1  0.875000  0.625000  0.737395  1
  Ti  Ti92  1  0.125000  0.375000  0.737395  1
  Ti  Ti93  1  0.625000  0.375000  0.737395  1
  Ti  Ti94  1  0.375000  0.125000  0.737395  1
  Ti  Ti95  1  0.875000  0.125000  0.737395  1
  Nb  Nb96  1  0.750000  0.750000  0.556925  1
