# generated using pymatgen
data_Ti96Nb
_symmetry_space_group_name_H-M   'P 1'
_cell_length_a   9.51302000
_cell_length_b   9.35086000
_cell_length_c   18.54723000
_cell_angle_alpha   90.00000000
_cell_angle_beta   90.00000000
_cell_angle_gamma   90.00000000
_symmetry_Int_Tables_number   1
_chemical_formula_structural   Ti96Nb
_chemical_formula_sum   'Ti96 Nb1'
_cell_volume   1649.86732743
_cell_formula_units_Z   1
loop_
 _symmetry_equiv_pos_site_id
 _symmetry_equiv_pos_as_xyz
  1  'x, y, z'
loop_
 _atom_site_type_symbol
 _atom_site_label
 _atom_site_symmetry_multiplicity
 _atom_site_fract_x
 _atom_site_fract_y
 _atom_site_fract_z
 _atom_site_occupancy
  Ti  Ti0  1  0.138790  0.365254  0.403363  1
  Ti  Ti1  1  0.657894  0.355258  0.395880  1
  Ti  Ti2  1  0.159821  0.862313  0.399430  1
  Ti  Ti3  1  0.672824  0.896546  0.406417  1
  Ti  Ti4  1  0.160333  0.375482  0.236899  1
  Ti  Ti5  1  0.662431  0.369740  0.231059  1
  Ti  Ti6  1  0.160007  0.873342  0.234429  1
  Ti  Ti7  1  0.659234  0.866572  0.240061  1
  Ti  Ti8  1  0.166644  0.375039  0.077577  1
  Ti  Ti9  1  0.666689  0.375011  0.077608  1
  Ti  Ti10  1  0.166697  0.874946  0.077652  1
  Ti  Ti11  1  0.666672  0.874972  0.077665  1
  Ti  Ti12  1  0.405701  0.376399  0.314588  1
  Ti  Ti13  1  0.906422  0.378454  0.316725  1
  Ti  Ti14  1  0.401177  0.892875  0.314416  1
  Ti  Ti15  1  0.910863  0.877756  0.318620  1
  Ti  Ti16  1  0.416702  0.374993  0.155170  1
  Ti  Ti17  1  0.916614  0.374982  0.155134  1
  Ti  Ti18  1  0.416617  0.874918  0.155326  1
  Ti  Ti19  1  0.916762  0.874916  0.155173  1
  Ti  Ti20  1  0.416705  0.375090  0.000098  1
  Ti  Ti21  1  0.916586  0.375063  0.000033  1
  Ti  Ti22  1  0.416694  0.874913  0.000169  1
  Ti  Ti23  1  0.916618  0.874945  0.000064  1
  Ti  Ti24  1  0.093578  0.121548  0.316724  1
  Ti  Ti25  1  0.594299  0.123603  0.314587  1
  Ti  Ti26  1  0.089137  0.622245  0.318619  1
  Ti  Ti27  1  0.598823  0.607126  0.314415  1
  Ti  Ti28  1  0.083387  0.125041  0.155135  1
  Ti  Ti29  1  0.583298  0.125031  0.155170  1
  Ti  Ti30  1  0.083237  0.625108  0.155172  1
  Ti  Ti31  1  0.583384  0.625100  0.155324  1
  Ti  Ti32  1  0.083415  0.124941  0.000035  1
  Ti  Ti33  1  0.583297  0.124913  0.000101  1
  Ti  Ti34  1  0.083383  0.625063  0.000064  1
  Ti  Ti35  1  0.583308  0.625085  0.000168  1
  Ti  Ti36  1  0.342105  0.144742  0.395880  1
  Ti  Ti37  1  0.861209  0.134747  0.403363  1
  Ti  Ti38  1  0.327174  0.603454  0.406417  1
  Ti  Ti39  1  0.840178  0.637688  0.399430  1
  Ti  Ti40  1  0.337568  0.130265  0.231059  1
  Ti  Ti41  1  0.839666  0.124523  0.236899  1
  Ti  Ti42  1  0.340765  0.633432  0.240061  1
  Ti  Ti43  1  0.839992  0.626663  0.234428  1
  Ti  Ti44  1  0.333311  0.125005  0.077608  1
  Ti  Ti45  1  0.833356  0.124979  0.077578  1
  Ti  Ti46  1  0.333328  0.625045  0.077665  1
  Ti  Ti47  1  0.833302  0.625071  0.077651  1
  Ti  Ti48  1  0.374997  0.375059  0.824048  1
  Ti  Ti49  1  0.874960  0.374929  0.824006  1
  Ti  Ti50  1  0.375061  0.874929  0.823881  1
  Ti  Ti51  1  0.874988  0.874979  0.823934  1
  Ti  Ti52  1  0.125044  0.125052  0.824007  1
  Ti  Ti53  1  0.625010  0.124942  0.824051  1
  Ti  Ti54  1  0.125017  0.625021  0.823935  1
  Ti  Ti55  1  0.624948  0.625053  0.823881  1
  Ti  Ti56  1  0.124984  0.375047  0.910220  1
  Ti  Ti57  1  0.625005  0.375013  0.910237  1
  Ti  Ti58  1  0.125065  0.874949  0.910184  1
  Ti  Ti59  1  0.624950  0.874934  0.910191  1
  Ti  Ti60  1  0.375002  0.124980  0.910239  1
  Ti  Ti61  1  0.875023  0.124949  0.910221  1
  Ti  Ti62  1  0.375054  0.625059  0.910189  1
  Ti  Ti63  1  0.874941  0.625047  0.910183  1
  Ti  Ti64  1  0.384217  0.381146  0.663884  1
  Ti  Ti65  1  0.889843  0.386753  0.649558  1
  Ti  Ti66  1  0.380962  0.884031  0.660476  1
  Ti  Ti67  1  0.897931  0.881447  0.655701  1
  Ti  Ti68  1  0.110155  0.113243  0.649558  1
  Ti  Ti69  1  0.615780  0.118846  0.663884  1
  Ti  Ti70  1  0.102066  0.618546  0.655701  1
  Ti  Ti71  1  0.619037  0.615962  0.660477  1
  Ti  Ti72  1  0.140212  0.365870  0.569966  1
  Ti  Ti73  1  0.640174  0.358543  0.583707  1
  Ti  Ti74  1  0.151386  0.854333  0.570078  1
  Ti  Ti75  1  0.666509  0.900015  0.569237  1
  Ti  Ti76  1  0.359825  0.141455  0.583707  1
  Ti  Ti77  1  0.859788  0.134128  0.569966  1
  Ti  Ti78  1  0.333490  0.599983  0.569237  1
  Ti  Ti79  1  0.848613  0.645665  0.570078  1
  Ti  Ti80  1  0.400038  0.362127  0.487895  1
  Ti  Ti81  1  0.886660  0.381565  0.491129  1
  Ti  Ti82  1  0.372869  0.940996  0.486305  1
  Ti  Ti83  1  0.917910  0.883155  0.483750  1
  Ti  Ti84  1  0.113340  0.118434  0.491129  1
  Ti  Ti85  1  0.599962  0.137873  0.487895  1
  Ti  Ti86  1  0.082089  0.616844  0.483750  1
  Ti  Ti87  1  0.627131  0.559004  0.486305  1
  Ti  Ti88  1  0.125550  0.875001  0.737754  1
  Ti  Ti89  1  0.625002  0.874738  0.737699  1
  Ti  Ti90  1  0.374988  0.625241  0.737694  1
  Ti  Ti91  1  0.874442  0.624977  0.737760  1
  Ti  Ti92  1  0.124689  0.375011  0.737854  1
  Ti  Ti93  1  0.625231  0.374827  0.737904  1
  Ti  Ti94  1  0.374755  0.125140  0.737904  1
  Ti  Ti95  1  0.875300  0.124960  0.737852  1
  Nb  Nb96  1  0.500000  0.750000  0.489650  1
