# generated using pymatgen
data_Ti
_symmetry_space_group_name_H-M   'P 1'
_cell_length_a   9.51302000
_cell_length_b   9.35086000
_cell_length_c   18.54723000
_cell_angle_alpha   90.00000000
_cell_angle_beta   90.00000000
_cell_angle_gamma   90.00000000
_symmetry_Int_Tables_number   1
_chemical_formula_structural   Ti
_chemical_formula_sum   Ti97
_cell_volume   1649.86732743
_cell_formula_units_Z   97
loop_
 _symmetry_equiv_pos_site_id
 _symmetry_equiv_pos_as_xyz
  1  'x, y, z'
loop_
 _atom_site_type_symbol
 _atom_site_label
 _atom_site_symmetry_multiplicity
 _atom_site_fract_x
 _atom_site_fract_y
 _atom_site_fract_z
 _atom_site_occupancy
  Ti  Ti0  1  0.139458  0.360395  0.405518  1
  Ti  Ti1  1  0.648735  0.361194  0.406621  1
  Ti  Ti2  1  0.175017  0.858217  0.400707  1
  Ti  Ti3  1  0.678725  0.919822  0.403700  1
  Ti  Ti4  1  0.158193  0.381016  0.237653  1
  Ti  Ti5  1  0.666923  0.365507  0.228434  1
  Ti  Ti6  1  0.158750  0.874555  0.233671  1
  Ti  Ti7  1  0.655688  0.859632  0.246501  1
  Ti  Ti8  1  0.166666  0.375000  0.077689  1
  Ti  Ti9  1  0.666666  0.375000  0.077689  1
  Ti  Ti10  1  0.166666  0.875000  0.077689  1
  Ti  Ti11  1  0.666666  0.875000  0.077689  1
  Ti  Ti12  1  0.404508  0.366908  0.312601  1
  Ti  Ti13  1  0.898655  0.377165  0.319102  1
  Ti  Ti14  1  0.396330  0.910444  0.310436  1
  Ti  Ti15  1  0.916504  0.878543  0.321290  1
  Ti  Ti16  1  0.416667  0.375000  0.155379  1
  Ti  Ti17  1  0.916667  0.375000  0.155379  1
  Ti  Ti18  1  0.416667  0.875000  0.155379  1
  Ti  Ti19  1  0.916667  0.875000  0.155379  1
  Ti  Ti20  1  0.416667  0.375000  0.000000  1
  Ti  Ti21  1  0.916667  0.375000  0.000000  1
  Ti  Ti22  1  0.416667  0.875000  0.000000  1
  Ti  Ti23  1  0.916667  0.875000  0.000000  1
  Ti  Ti24  1  0.101345  0.122835  0.319101  1
  Ti  Ti25  1  0.595492  0.133092  0.312600  1
  Ti  Ti26  1  0.083496  0.621457  0.321289  1
  Ti  Ti27  1  0.603670  0.589556  0.310435  1
  Ti  Ti28  1  0.083333  0.125000  0.155379  1
  Ti  Ti29  1  0.583333  0.125000  0.155379  1
  Ti  Ti30  1  0.083333  0.625000  0.155379  1
  Ti  Ti31  1  0.583333  0.625000  0.155379  1
  Ti  Ti32  1  0.083333  0.125000  0.000000  1
  Ti  Ti33  1  0.583333  0.125000  0.000000  1
  Ti  Ti34  1  0.083333  0.625000  0.000000  1
  Ti  Ti35  1  0.583333  0.625000  0.000000  1
  Ti  Ti36  1  0.351264  0.138806  0.406621  1
  Ti  Ti37  1  0.860541  0.139605  0.405518  1
  Ti  Ti38  1  0.321274  0.580178  0.403700  1
  Ti  Ti39  1  0.824982  0.641783  0.400707  1
  Ti  Ti40  1  0.333076  0.134493  0.228434  1
  Ti  Ti41  1  0.841806  0.118984  0.237653  1
  Ti  Ti42  1  0.344311  0.640368  0.246501  1
  Ti  Ti43  1  0.841249  0.625445  0.233671  1
  Ti  Ti44  1  0.333333  0.125000  0.077689  1
  Ti  Ti45  1  0.833333  0.125000  0.077689  1
  Ti  Ti46  1  0.333333  0.625000  0.077689  1
  Ti  Ti47  1  0.833333  0.625000  0.077689  1
  Ti  Ti48  1  0.375000  0.375000  0.823738  1
  Ti  Ti49  1  0.875000  0.375000  0.823738  1
  Ti  Ti50  1  0.375000  0.875000  0.823738  1
  Ti  Ti51  1  0.875000  0.875000  0.823738  1
  Ti  Ti52  1  0.125000  0.125000  0.823738  1
  Ti  Ti53  1  0.625000  0.125000  0.823738  1
  Ti  Ti54  1  0.125000  0.625000  0.823738  1
  Ti  Ti55  1  0.625000  0.625000  0.823738  1
  Ti  Ti56  1  0.125000  0.375000  0.910084  1
  Ti  Ti57  1  0.625000  0.375000  0.910084  1
  Ti  Ti58  1  0.125000  0.875000  0.910084  1
  Ti  Ti59  1  0.625000  0.875000  0.910084  1
  Ti  Ti60  1  0.375000  0.125000  0.910084  1
  Ti  Ti61  1  0.875000  0.125000  0.910084  1
  Ti  Ti62  1  0.375000  0.625000  0.910084  1
  Ti  Ti63  1  0.875000  0.625000  0.910084  1
  Ti  Ti64  1  0.392914  0.397463  0.652711  1
  Ti  Ti65  1  0.903083  0.377904  0.650378  1
  Ti  Ti66  1  0.391627  0.881303  0.653878  1
  Ti  Ti67  1  0.884354  0.883616  0.661389  1
  Ti  Ti68  1  0.096917  0.122096  0.650378  1
  Ti  Ti69  1  0.607086  0.102537  0.652711  1
  Ti  Ti70  1  0.115646  0.616384  0.661389  1
  Ti  Ti71  1  0.608373  0.618697  0.653878  1
  Ti  Ti72  1  0.150771  0.379422  0.566730  1
  Ti  Ti73  1  0.653758  0.354516  0.584800  1
  Ti  Ti74  1  0.134475  0.859685  0.580086  1
  Ti  Ti75  1  0.649561  0.854787  0.562365  1
  Ti  Ti76  1  0.346242  0.145484  0.584800  1
  Ti  Ti77  1  0.849229  0.120578  0.566730  1
  Ti  Ti78  1  0.350439  0.645213  0.562365  1
  Ti  Ti79  1  0.865525  0.640315  0.580086  1
  Ti  Ti80  1  0.405985  0.373312  0.497227  1
  Ti  Ti81  1  0.893658  0.380326  0.490349  1
  Ti  Ti82  1  0.378825  0.913527  0.502684  1
  Ti  Ti83  1  0.915144  0.876219  0.482478  1
  Ti  Ti84  1  0.106342  0.119674  0.490349  1
  Ti  Ti85  1  0.594015  0.126688  0.497227  1
  Ti  Ti86  1  0.084856  0.623781  0.482478  1
  Ti  Ti87  1  0.621175  0.586473  0.502684  1
  Ti  Ti88  1  0.125000  0.875000  0.737395  1
  Ti  Ti89  1  0.625000  0.875000  0.737395  1
  Ti  Ti90  1  0.375000  0.625000  0.737395  1
  Ti  Ti91  1  0.875000  0.625000  0.737395  1
  Ti  Ti92  1  0.125000  0.375000  0.737395  1
  Ti  Ti93  1  0.625000  0.375000  0.737395  1
  Ti  Ti94  1  0.375000  0.125000  0.737395  1
  Ti  Ti95  1  0.875000  0.125000  0.737395  1
  Ti  Ti96  1  0.500000  0.750000  0.409820  1
