# generated using pymatgen
data_ZrTi96
_symmetry_space_group_name_H-M   'P 1'
_cell_length_a   9.51302000
_cell_length_b   9.35086000
_cell_length_c   18.54723000
_cell_angle_alpha   90.00000000
_cell_angle_beta   90.00000000
_cell_angle_gamma   90.00000000
_symmetry_Int_Tables_number   1
_chemical_formula_structural   ZrTi96
_chemical_formula_sum   'Zr1 Ti96'
_cell_volume   1649.86732743
_cell_formula_units_Z   1
loop_
 _symmetry_equiv_pos_site_id
 _symmetry_equiv_pos_as_xyz
  1  'x, y, z'
loop_
 _atom_site_type_symbol
 _atom_site_label
 _atom_site_symmetry_multiplicity
 _atom_site_fract_x
 _atom_site_fract_y
 _atom_site_fract_z
 _atom_site_occupancy
  Ti  Ti0  1  0.145843  0.375460  0.398004  1
  Ti  Ti1  1  0.651431  0.366607  0.394345  1
  Ti  Ti2  1  0.167353  0.883002  0.396398  1
  Ti  Ti3  1  0.649039  0.910327  0.395837  1
  Ti  Ti4  1  0.164736  0.376682  0.235486  1
  Ti  Ti5  1  0.661177  0.380667  0.235081  1
  Ti  Ti6  1  0.157883  0.874376  0.235232  1
  Ti  Ti7  1  0.660226  0.873836  0.235149  1
  Ti  Ti8  1  0.166667  0.375000  0.077686  1
  Ti  Ti9  1  0.666666  0.375004  0.077689  1
  Ti  Ti10  1  0.166668  0.874999  0.077689  1
  Ti  Ti11  1  0.666667  0.874997  0.077688  1
  Ti  Ti12  1  0.409019  0.377879  0.317185  1
  Ti  Ti13  1  0.912548  0.367281  0.309279  1
  Ti  Ti14  1  0.409618  0.875120  0.315798  1
  Ti  Ti15  1  0.904503  0.862179  0.325396  1
  Ti  Ti16  1  0.416672  0.375006  0.155364  1
  Ti  Ti17  1  0.916664  0.375006  0.155360  1
  Ti  Ti18  1  0.416671  0.874990  0.155364  1
  Ti  Ti19  1  0.916678  0.875006  0.155366  1
  Ti  Ti20  1  0.416673  0.375005  -0.000005  1
  Ti  Ti21  1  0.916665  0.375003  -0.000002  1
  Ti  Ti22  1  0.416671  0.874997  -0.000002  1
  Ti  Ti23  1  0.916667  0.874999  -0.000000  1
  Ti  Ti24  1  0.090981  0.122121  0.317184  1
  Ti  Ti25  1  0.587452  0.132719  0.309278  1
  Ti  Ti26  1  0.090382  0.624880  0.315797  1
  Ti  Ti27  1  0.595497  0.637821  0.325395  1
  Ti  Ti28  1  0.083328  0.124995  0.155364  1
  Ti  Ti29  1  0.583335  0.124994  0.155360  1
  Ti  Ti30  1  0.083329  0.625010  0.155364  1
  Ti  Ti31  1  0.583322  0.624994  0.155366  1
  Ti  Ti32  1  0.083328  0.124996  -0.000005  1
  Ti  Ti33  1  0.583335  0.124998  -0.000002  1
  Ti  Ti34  1  0.083329  0.625004  -0.000003  1
  Ti  Ti35  1  0.583334  0.625001  -0.000000  1
  Ti  Ti36  1  0.354156  0.124540  0.398004  1
  Ti  Ti37  1  0.848568  0.133393  0.394345  1
  Ti  Ti38  1  0.332646  0.616998  0.396398  1
  Ti  Ti39  1  0.850960  0.589673  0.395837  1
  Ti  Ti40  1  0.335263  0.123318  0.235486  1
  Ti  Ti41  1  0.838822  0.119333  0.235081  1
  Ti  Ti42  1  0.342116  0.625624  0.235232  1
  Ti  Ti43  1  0.839773  0.626164  0.235149  1
  Ti  Ti44  1  0.333332  0.125000  0.077686  1
  Ti  Ti45  1  0.833333  0.124996  0.077689  1
  Ti  Ti46  1  0.333331  0.625002  0.077689  1
  Ti  Ti47  1  0.833332  0.625004  0.077688  1
  Ti  Ti48  1  0.374997  0.375010  0.823756  1
  Ti  Ti49  1  0.874995  0.375007  0.823752  1
  Ti  Ti50  1  0.375002  0.875003  0.823768  1
  Ti  Ti51  1  0.874976  0.874993  0.823748  1
  Ti  Ti52  1  0.125004  0.124990  0.823756  1
  Ti  Ti53  1  0.625006  0.124993  0.823752  1
  Ti  Ti54  1  0.124998  0.624997  0.823768  1
  Ti  Ti55  1  0.625025  0.625007  0.823748  1
  Ti  Ti56  1  0.124998  0.375000  0.910093  1
  Ti  Ti57  1  0.625009  0.375008  0.910088  1
  Ti  Ti58  1  0.124999  0.875001  0.910097  1
  Ti  Ti59  1  0.625009  0.874996  0.910093  1
  Ti  Ti60  1  0.375002  0.125001  0.910093  1
  Ti  Ti61  1  0.874992  0.124992  0.910088  1
  Ti  Ti62  1  0.375002  0.624999  0.910097  1
  Ti  Ti63  1  0.874992  0.625004  0.910092  1
  Ti  Ti64  1  0.396621  0.376503  0.644011  1
  Ti  Ti65  1  0.887468  0.354803  0.663232  1
  Ti  Ti66  1  0.375869  0.865926  0.669326  1
  Ti  Ti67  1  0.888666  0.864641  0.650137  1
  Ti  Ti68  1  0.103379  0.123497  0.644011  1
  Ti  Ti69  1  0.612532  0.145197  0.663232  1
  Ti  Ti70  1  0.124130  0.634074  0.669326  1
  Ti  Ti71  1  0.611334  0.635359  0.650136  1
  Ti  Ti72  1  0.140903  0.388239  0.575444  1
  Ti  Ti73  1  0.658259  0.383984  0.574324  1
  Ti  Ti74  1  0.154985  0.871196  0.570889  1
  Ti  Ti75  1  0.593944  0.918959  0.585177  1
  Ti  Ti76  1  0.359097  0.111761  0.575444  1
  Ti  Ti77  1  0.841741  0.116015  0.574324  1
  Ti  Ti78  1  0.345015  0.628804  0.570889  1
  Ti  Ti79  1  0.906056  0.581041  0.585177  1
  Ti  Ti80  1  0.377787  0.360364  0.487747  1
  Ti  Ti81  1  0.903875  0.352545  0.489857  1
  Ti  Ti82  1  0.404720  0.857189  0.478098  1
  Ti  Ti83  1  -0.057021  -0.079539  0.479157  1
  Ti  Ti84  1  0.122213  0.139636  0.487747  1
  Ti  Ti85  1  0.596125  0.147455  0.489857  1
  Ti  Ti86  1  0.095280  0.642811  0.478098  1
  Ti  Ti87  1  0.557021  0.579539  0.479157  1
  Ti  Ti88  1  0.125038  0.875031  0.737463  1
  Ti  Ti89  1  0.625047  0.875025  0.737484  1
  Ti  Ti90  1  0.374961  0.624966  0.737464  1
  Ti  Ti91  1  0.874951  0.624972  0.737484  1
  Ti  Ti92  1  0.125043  0.374988  0.737450  1
  Ti  Ti93  1  0.624980  0.375157  0.737460  1
  Ti  Ti94  1  0.374956  0.125011  0.737450  1
  Ti  Ti95  1  0.875019  0.124841  0.737461  1
  Zr  Zr96  1  0.750000  0.750000  0.509138  1
