# generated using pymatgen
data_Ti96Nb
_symmetry_space_group_name_H-M   'P 1'
_cell_length_a   9.51302000
_cell_length_b   9.35086000
_cell_length_c   18.54723000
_cell_angle_alpha   90.00000000
_cell_angle_beta   90.00000000
_cell_angle_gamma   90.00000000
_symmetry_Int_Tables_number   1
_chemical_formula_structural   Ti96Nb
_chemical_formula_sum   'Ti96 Nb1'
_cell_volume   1649.86732743
_cell_formula_units_Z   1
loop_
 _symmetry_equiv_pos_site_id
 _symmetry_equiv_pos_as_xyz
  1  'x, y, z'
loop_
 _atom_site_type_symbol
 _atom_site_label
 _atom_site_symmetry_multiplicity
 _atom_site_fract_x
 _atom_site_fract_y
 _atom_site_fract_z
 _atom_site_occupancy
  Ti  Ti0  1  0.136423  0.363399  0.404995  1
  Ti  Ti1  1  0.646800  0.347129  0.407955  1
  Ti  Ti2  1  0.159531  0.854235  0.405093  1
  Ti  Ti3  1  0.680424  0.916988  0.406158  1
  Ti  Ti4  1  0.156992  0.377958  0.238403  1
  Ti  Ti5  1  0.665205  0.363289  0.229243  1
  Ti  Ti6  1  0.156555  0.871353  0.232526  1
  Ti  Ti7  1  0.660490  0.865743  0.242233  1
  Ti  Ti8  1  0.166686  0.375050  0.077600  1
  Ti  Ti9  1  0.666712  0.374991  0.077565  1
  Ti  Ti10  1  0.166706  0.875018  0.077616  1
  Ti  Ti11  1  0.666652  0.875009  0.077623  1
  Ti  Ti12  1  0.407261  0.374083  0.314196  1
  Ti  Ti13  1  0.898525  0.375799  0.319202  1
  Ti  Ti14  1  0.375895  0.921982  0.316278  1
  Ti  Ti15  1  0.916418  0.879072  0.320081  1
  Ti  Ti16  1  0.416729  0.375136  0.155187  1
  Ti  Ti17  1  0.916718  0.374954  0.155210  1
  Ti  Ti18  1  0.416589  0.875165  0.155268  1
  Ti  Ti19  1  0.916685  0.875084  0.155193  1
  Ti  Ti20  1  0.416674  0.375016  -0.000044  1
  Ti  Ti21  1  0.916664  0.374997  -0.000047  1
  Ti  Ti22  1  0.416666  0.874998  -0.000009  1
  Ti  Ti23  1  0.916676  0.874996  -0.000042  1
  Ti  Ti24  1  0.101475  0.124201  0.319201  1
  Ti  Ti25  1  0.592739  0.125918  0.314195  1
  Ti  Ti26  1  0.083582  0.620928  0.320080  1
  Ti  Ti27  1  0.624105  0.578018  0.316277  1
  Ti  Ti28  1  0.083282  0.125055  0.155210  1
  Ti  Ti29  1  0.583271  0.124874  0.155187  1
  Ti  Ti30  1  0.083315  0.624926  0.155193  1
  Ti  Ti31  1  0.583412  0.624842  0.155269  1
  Ti  Ti32  1  0.083337  0.125002  -0.000048  1
  Ti  Ti33  1  0.583325  0.124985  -0.000045  1
  Ti  Ti34  1  0.083325  0.625005  -0.000042  1
  Ti  Ti35  1  0.583334  0.625000  -0.000010  1
  Ti  Ti36  1  0.353199  0.152871  0.407955  1
  Ti  Ti37  1  0.863576  0.136601  0.404995  1
  Ti  Ti38  1  0.319575  0.583012  0.406158  1
  Ti  Ti39  1  0.840468  0.645765  0.405093  1
  Ti  Ti40  1  0.334794  0.136713  0.229243  1
  Ti  Ti41  1  0.843007  0.122043  0.238403  1
  Ti  Ti42  1  0.339509  0.634258  0.242233  1
  Ti  Ti43  1  0.843444  0.628649  0.232526  1
  Ti  Ti44  1  0.333287  0.125016  0.077565  1
  Ti  Ti45  1  0.833312  0.124956  0.077600  1
  Ti  Ti46  1  0.333347  0.624996  0.077623  1
  Ti  Ti47  1  0.833293  0.624988  0.077616  1
  Ti  Ti48  1  0.375005  0.375006  0.823782  1
  Ti  Ti49  1  0.874978  0.375003  0.823791  1
  Ti  Ti50  1  0.375007  0.874993  0.823760  1
  Ti  Ti51  1  0.874992  0.874997  0.823761  1
  Ti  Ti52  1  0.125023  0.124990  0.823791  1
  Ti  Ti53  1  0.624996  0.124990  0.823782  1
  Ti  Ti54  1  0.125009  0.624998  0.823761  1
  Ti  Ti55  1  0.624994  0.625002  0.823760  1
  Ti  Ti56  1  0.125010  0.375027  0.910101  1
  Ti  Ti57  1  0.625002  0.375016  0.910094  1
  Ti  Ti58  1  0.125025  0.874983  0.910101  1
  Ti  Ti59  1  0.624986  0.874988  0.910103  1
  Ti  Ti60  1  0.374999  0.124979  0.910094  1
  Ti  Ti61  1  0.874991  0.124967  0.910101  1
  Ti  Ti62  1  0.375013  0.625005  0.910102  1
  Ti  Ti63  1  0.874976  0.625011  0.910101  1
  Ti  Ti64  1  0.391846  0.393237  0.654261  1
  Ti  Ti65  1  0.901843  0.380182  0.651402  1
  Ti  Ti66  1  0.393352  0.881560  0.654272  1
  Ti  Ti67  1  0.884938  0.885459  0.660643  1
  Ti  Ti68  1  0.098157  0.119817  0.651402  1
  Ti  Ti69  1  0.608153  0.106762  0.654261  1
  Ti  Ti70  1  0.115062  0.614539  0.660643  1
  Ti  Ti71  1  0.606648  0.618439  0.654272  1
  Ti  Ti72  1  0.149691  0.373247  0.568731  1
  Ti  Ti73  1  0.652310  0.358190  0.583906  1
  Ti  Ti74  1  0.137485  0.860064  0.580355  1
  Ti  Ti75  1  0.647051  0.855811  0.565666  1
  Ti  Ti76  1  0.347690  0.141810  0.583906  1
  Ti  Ti77  1  0.850309  0.126753  0.568731  1
  Ti  Ti78  1  0.352949  0.644188  0.565666  1
  Ti  Ti79  1  0.862515  0.639935  0.580355  1
  Ti  Ti80  1  0.405305  0.376073  0.499052  1
  Ti  Ti81  1  0.891207  0.380048  0.489716  1
  Ti  Ti82  1  0.379719  0.912677  0.496407  1
  Ti  Ti83  1  0.912865  0.883030  0.488455  1
  Ti  Ti84  1  0.108793  0.119952  0.489716  1
  Ti  Ti85  1  0.594695  0.123927  0.499052  1
  Ti  Ti86  1  0.087135  0.616970  0.488455  1
  Ti  Ti87  1  0.620281  0.587323  0.496407  1
  Ti  Ti88  1  0.125076  0.875026  0.737441  1
  Ti  Ti89  1  0.625015  0.875036  0.737443  1
  Ti  Ti90  1  0.374985  0.624960  0.737443  1
  Ti  Ti91  1  0.874924  0.624970  0.737442  1
  Ti  Ti92  1  0.124996  0.374996  0.737496  1
  Ti  Ti93  1  0.624993  0.375015  0.737478  1
  Ti  Ti94  1  0.375005  0.124979  0.737478  1
  Ti  Ti95  1  0.875001  0.124997  0.737496  1
  Nb  Nb96  1  0.500000  0.750000  0.387659  1
