# generated using pymatgen
data_Ti96Nb
_symmetry_space_group_name_H-M   'P 1'
_cell_length_a   9.51302000
_cell_length_b   9.35086000
_cell_length_c   18.54723000
_cell_angle_alpha   90.00000000
_cell_angle_beta   90.00000000
_cell_angle_gamma   90.00000000
_symmetry_Int_Tables_number   1
_chemical_formula_structural   Ti96Nb
_chemical_formula_sum   'Ti96 Nb1'
_cell_volume   1649.86732743
_cell_formula_units_Z   1
loop_
 _symmetry_equiv_pos_site_id
 _symmetry_equiv_pos_as_xyz
  1  'x, y, z'
loop_
 _atom_site_type_symbol
 _atom_site_label
 _atom_site_symmetry_multiplicity
 _atom_site_fract_x
 _atom_site_fract_y
 _atom_site_fract_z
 _atom_site_occupancy
  Ti  Ti0  1  0.141347  0.368615  0.404008  1
  Ti  Ti1  1  0.645552  0.341097  0.408476  1
  Ti  Ti2  1  0.147547  0.852999  0.410998  1
  Ti  Ti3  1  0.674200  0.902954  0.409365  1
  Ti  Ti4  1  0.155838  0.375597  0.239334  1
  Ti  Ti5  1  0.662696  0.361307  0.230805  1
  Ti  Ti6  1  0.154983  0.869805  0.231409  1
  Ti  Ti7  1  0.665414  0.871301  0.238225  1
  Ti  Ti8  1  0.166708  0.375088  0.077571  1
  Ti  Ti9  1  0.666707  0.375031  0.077523  1
  Ti  Ti10  1  0.166739  0.874954  0.077593  1
  Ti  Ti11  1  0.666646  0.874948  0.077593  1
  Ti  Ti12  1  0.410692  0.382942  0.317069  1
  Ti  Ti13  1  0.899792  0.374751  0.320383  1
  Ti  Ti14  1  0.355025  0.929645  0.321498  1
  Ti  Ti15  1  0.914263  0.878233  0.320047  1
  Ti  Ti16  1  0.416757  0.375262  0.155133  1
  Ti  Ti17  1  0.916749  0.374937  0.155146  1
  Ti  Ti18  1  0.416598  0.874998  0.155288  1
  Ti  Ti19  1  0.916721  0.875010  0.155134  1
  Ti  Ti20  1  0.416681  0.375036  -0.000060  1
  Ti  Ti21  1  0.916660  0.375008  -0.000064  1
  Ti  Ti22  1  0.416666  0.874961  -0.000022  1
  Ti  Ti23  1  0.916682  0.874981  -0.000060  1
  Ti  Ti24  1  0.100208  0.125249  0.320382  1
  Ti  Ti25  1  0.589308  0.117059  0.317068  1
  Ti  Ti26  1  0.085737  0.621767  0.320046  1
  Ti  Ti27  1  0.644975  0.570355  0.321497  1
  Ti  Ti28  1  0.083251  0.125074  0.155146  1
  Ti  Ti29  1  0.583241  0.124750  0.155135  1
  Ti  Ti30  1  0.083280  0.625001  0.155134  1
  Ti  Ti31  1  0.583402  0.625009  0.155287  1
  Ti  Ti32  1  0.083341  0.124992  -0.000064  1
  Ti  Ti33  1  0.583319  0.124966  -0.000060  1
  Ti  Ti34  1  0.083319  0.625021  -0.000060  1
  Ti  Ti35  1  0.583335  0.625037  -0.000023  1
  Ti  Ti36  1  0.354447  0.158903  0.408476  1
  Ti  Ti37  1  0.858652  0.131385  0.404008  1
  Ti  Ti38  1  0.325799  0.597046  0.409365  1
  Ti  Ti39  1  0.852452  0.647001  0.410998  1
  Ti  Ti40  1  0.337303  0.138695  0.230805  1
  Ti  Ti41  1  0.844161  0.124405  0.239334  1
  Ti  Ti42  1  0.334585  0.628700  0.238225  1
  Ti  Ti43  1  0.845016  0.630197  0.231409  1
  Ti  Ti44  1  0.333292  0.124977  0.077524  1
  Ti  Ti45  1  0.833290  0.124918  0.077572  1
  Ti  Ti46  1  0.333353  0.625059  0.077592  1
  Ti  Ti47  1  0.833261  0.625052  0.077592  1
  Ti  Ti48  1  0.375010  0.375013  0.823786  1
  Ti  Ti49  1  0.874974  0.375002  0.823792  1
  Ti  Ti50  1  0.375010  0.874986  0.823766  1
  Ti  Ti51  1  0.874997  0.874991  0.823775  1
  Ti  Ti52  1  0.125027  0.124991  0.823792  1
  Ti  Ti53  1  0.624992  0.124982  0.823787  1
  Ti  Ti54  1  0.125005  0.625004  0.823774  1
  Ti  Ti55  1  0.624992  0.625008  0.823766  1
  Ti  Ti56  1  0.124985  0.375032  0.910066  1
  Ti  Ti57  1  0.625002  0.375025  0.910068  1
  Ti  Ti58  1  0.125002  0.874975  0.910058  1
  Ti  Ti59  1  0.624983  0.874974  0.910071  1
  Ti  Ti60  1  0.375000  0.124970  0.910068  1
  Ti  Ti61  1  0.875016  0.124963  0.910067  1
  Ti  Ti62  1  0.375017  0.625019  0.910070  1
  Ti  Ti63  1  0.874999  0.625021  0.910058  1
  Ti  Ti64  1  0.393049  0.389916  0.654259  1
  Ti  Ti65  1  0.901407  0.382670  0.652314  1
  Ti  Ti66  1  0.394785  0.881992  0.654613  1
  Ti  Ti67  1  0.886694  0.886160  0.658763  1
  Ti  Ti68  1  0.098592  0.117329  0.652314  1
  Ti  Ti69  1  0.606951  0.110082  0.654259  1
  Ti  Ti70  1  0.113305  0.613838  0.658763  1
  Ti  Ti71  1  0.605215  0.618007  0.654613  1
  Ti  Ti72  1  0.149502  0.367272  0.571318  1
  Ti  Ti73  1  0.652384  0.362286  0.581712  1
  Ti  Ti74  1  0.141518  0.861506  0.579110  1
  Ti  Ti75  1  0.645299  0.857142  0.567531  1
  Ti  Ti76  1  0.347616  0.137714  0.581712  1
  Ti  Ti77  1  0.850498  0.132728  0.571318  1
  Ti  Ti78  1  0.354701  0.642857  0.567531  1
  Ti  Ti79  1  0.858482  0.638493  0.579110  1
  Ti  Ti80  1  0.403714  0.378770  0.499214  1
  Ti  Ti81  1  0.891962  0.378913  0.487618  1
  Ti  Ti82  1  0.385457  0.907405  0.490954  1
  Ti  Ti83  1  0.908582  0.888605  0.493687  1
  Ti  Ti84  1  0.108038  0.121087  0.487618  1
  Ti  Ti85  1  0.596286  0.121230  0.499214  1
  Ti  Ti86  1  0.091418  0.611395  0.493687  1
  Ti  Ti87  1  0.614543  0.592595  0.490954  1
  Ti  Ti88  1  0.125058  0.875043  0.737471  1
  Ti  Ti89  1  0.624994  0.875003  0.737458  1
  Ti  Ti90  1  0.375004  0.624990  0.737458  1
  Ti  Ti91  1  0.874940  0.624950  0.737472  1
  Ti  Ti92  1  0.124963  0.374994  0.737512  1
  Ti  Ti93  1  0.624995  0.375011  0.737490  1
  Ti  Ti94  1  0.375003  0.124981  0.737490  1
  Ti  Ti95  1  0.875034  0.124997  0.737512  1
  Nb  Nb96  1  0.500000  0.750000  0.361673  1
