# generated using pymatgen
data_Ti
_symmetry_space_group_name_H-M   'P 1'
_cell_length_a   9.51302000
_cell_length_b   9.35086000
_cell_length_c   18.54723000
_cell_angle_alpha   90.00000000
_cell_angle_beta   90.00000000
_cell_angle_gamma   90.00000000
_symmetry_Int_Tables_number   1
_chemical_formula_structural   Ti
_chemical_formula_sum   Ti97
_cell_volume   1649.86732743
_cell_formula_units_Z   97
loop_
 _symmetry_equiv_pos_site_id
 _symmetry_equiv_pos_as_xyz
  1  'x, y, z'
loop_
 _atom_site_type_symbol
 _atom_site_label
 _atom_site_symmetry_multiplicity
 _atom_site_fract_x
 _atom_site_fract_y
 _atom_site_fract_z
 _atom_site_occupancy
  Ti  Ti0  1  0.141726  0.363891  0.405927  1
  Ti  Ti1  1  0.647303  0.354421  0.406381  1
  Ti  Ti2  1  0.164260  0.857505  0.398371  1
  Ti  Ti3  1  0.677778  0.910345  0.400229  1
  Ti  Ti4  1  0.158779  0.378528  0.236607  1
  Ti  Ti5  1  0.665449  0.368233  0.229905  1
  Ti  Ti6  1  0.159882  0.874398  0.234160  1
  Ti  Ti7  1  0.655303  0.862223  0.243937  1
  Ti  Ti8  1  0.166669  0.374999  0.077656  1
  Ti  Ti9  1  0.666670  0.375010  0.077661  1
  Ti  Ti10  1  0.166679  0.874992  0.077673  1
  Ti  Ti11  1  0.666680  0.875006  0.077678  1
  Ti  Ti12  1  0.404601  0.369714  0.312583  1
  Ti  Ti13  1  0.898159  0.375700  0.319710  1
  Ti  Ti14  1  0.398471  0.906660  0.315307  1
  Ti  Ti15  1  0.915750  0.880702  0.318045  1
  Ti  Ti16  1  0.416661  0.374977  0.155324  1
  Ti  Ti17  1  0.916653  0.374997  0.155330  1
  Ti  Ti18  1  0.416664  0.875006  0.155355  1
  Ti  Ti19  1  0.916711  0.874985  0.155332  1
  Ti  Ti20  1  0.416668  0.375000  -0.000003  1
  Ti  Ti21  1  0.916663  0.375002  -0.000006  1
  Ti  Ti22  1  0.416670  0.874994  0.000009  1
  Ti  Ti23  1  0.916671  0.874994  0.000000  1
  Ti  Ti24  1  0.101841  0.124300  0.319709  1
  Ti  Ti25  1  0.595399  0.130286  0.312582  1
  Ti  Ti26  1  0.084250  0.619298  0.318044  1
  Ti  Ti27  1  0.601529  0.593340  0.315306  1
  Ti  Ti28  1  0.083347  0.125005  0.155330  1
  Ti  Ti29  1  0.583339  0.125026  0.155324  1
  Ti  Ti30  1  0.083289  0.625017  0.155332  1
  Ti  Ti31  1  0.583336  0.624996  0.155355  1
  Ti  Ti32  1  0.083337  0.124999  -0.000006  1
  Ti  Ti33  1  0.583332  0.125000  -0.000003  1
  Ti  Ti34  1  0.083328  0.625007  0.000000  1
  Ti  Ti35  1  0.583330  0.625006  0.000009  1
  Ti  Ti36  1  0.352696  0.145579  0.406381  1
  Ti  Ti37  1  0.858273  0.136109  0.405927  1
  Ti  Ti38  1  0.322221  0.589655  0.400229  1
  Ti  Ti39  1  0.835739  0.642495  0.398371  1
  Ti  Ti40  1  0.334550  0.131767  0.229905  1
  Ti  Ti41  1  0.841220  0.121473  0.236607  1
  Ti  Ti42  1  0.344696  0.637777  0.243937  1
  Ti  Ti43  1  0.840117  0.625603  0.234160  1
  Ti  Ti44  1  0.333329  0.124991  0.077662  1
  Ti  Ti45  1  0.833331  0.125003  0.077656  1
  Ti  Ti46  1  0.333319  0.624995  0.077678  1
  Ti  Ti47  1  0.833320  0.625009  0.077673  1
  Ti  Ti48  1  0.375000  0.375012  0.823777  1
  Ti  Ti49  1  0.875001  0.374993  0.823772  1
  Ti  Ti50  1  0.374999  0.874994  0.823769  1
  Ti  Ti51  1  0.875002  0.874984  0.823768  1
  Ti  Ti52  1  0.124999  0.125006  0.823772  1
  Ti  Ti53  1  0.625000  0.124986  0.823777  1
  Ti  Ti54  1  0.124999  0.625016  0.823768  1
  Ti  Ti55  1  0.625002  0.625004  0.823769  1
  Ti  Ti56  1  0.124997  0.375005  0.910091  1
  Ti  Ti57  1  0.625001  0.375004  0.910095  1
  Ti  Ti58  1  0.124999  0.874995  0.910093  1
  Ti  Ti59  1  0.624999  0.874992  0.910094  1
  Ti  Ti60  1  0.374999  0.124996  0.910095  1
  Ti  Ti61  1  0.875003  0.124994  0.910091  1
  Ti  Ti62  1  0.375002  0.625007  0.910094  1
  Ti  Ti63  1  0.875002  0.625004  0.910093  1
  Ti  Ti64  1  0.392793  0.394490  0.654676  1
  Ti  Ti65  1  0.900172  0.375911  0.649493  1
  Ti  Ti66  1  0.392133  0.884796  0.651017  1
  Ti  Ti67  1  0.883679  0.883942  0.663728  1
  Ti  Ti68  1  0.099828  0.124088  0.649493  1
  Ti  Ti69  1  0.607207  0.105510  0.654676  1
  Ti  Ti70  1  0.116321  0.616058  0.663728  1
  Ti  Ti71  1  0.607867  0.615203  0.651017  1
  Ti  Ti72  1  0.150749  0.379562  0.566855  1
  Ti  Ti73  1  0.649847  0.349235  0.581277  1
  Ti  Ti74  1  0.130533  0.859281  0.581876  1
  Ti  Ti75  1  0.651951  0.857963  0.567139  1
  Ti  Ti76  1  0.350153  0.150765  0.581277  1
  Ti  Ti77  1  0.849251  0.120438  0.566855  1
  Ti  Ti78  1  0.348049  0.642037  0.567139  1
  Ti  Ti79  1  0.869467  0.640719  0.581876  1
  Ti  Ti80  1  0.407729  0.384794  0.494672  1
  Ti  Ti81  1  0.895400  0.378972  0.489578  1
  Ti  Ti82  1  0.362637  0.918192  0.499708  1
  Ti  Ti83  1  0.912642  0.876658  0.483786  1
  Ti  Ti84  1  0.104600  0.121028  0.489578  1
  Ti  Ti85  1  0.592271  0.115206  0.494672  1
  Ti  Ti86  1  0.087358  0.623342  0.483786  1
  Ti  Ti87  1  0.637363  0.581808  0.499708  1
  Ti  Ti88  1  0.124975  0.874997  0.737455  1
  Ti  Ti89  1  0.625005  0.874933  0.737449  1
  Ti  Ti90  1  0.374994  0.625064  0.737448  1
  Ti  Ti91  1  0.875024  0.625000  0.737455  1
  Ti  Ti92  1  0.124964  0.375006  0.737451  1
  Ti  Ti93  1  0.625019  0.374960  0.737472  1
  Ti  Ti94  1  0.374979  0.125037  0.737472  1
  Ti  Ti95  1  0.875036  0.124992  0.737451  1
  Ti  Ti96  1  0.500000  0.750000  0.427983  1
