# generated using pymatgen
data_Ti96Nb
_symmetry_space_group_name_H-M   'P 1'
_cell_length_a   9.51302000
_cell_length_b   9.35086000
_cell_length_c   18.54723000
_cell_angle_alpha   90.00000000
_cell_angle_beta   90.00000000
_cell_angle_gamma   90.00000000
_symmetry_Int_Tables_number   1
_chemical_formula_structural   Ti96Nb
_chemical_formula_sum   'Ti96 Nb1'
_cell_volume   1649.86732743
_cell_formula_units_Z   1
loop_
 _symmetry_equiv_pos_site_id
 _symmetry_equiv_pos_as_xyz
  1  'x, y, z'
loop_
 _atom_site_type_symbol
 _atom_site_label
 _atom_site_symmetry_multiplicity
 _atom_site_fract_x
 _atom_site_fract_y
 _atom_site_fract_z
 _atom_site_occupancy
  Ti  Ti0  1  0.147699  0.371890  0.401436  1
  Ti  Ti1  1  0.665321  0.362748  0.387057  1
  Ti  Ti2  1  0.150397  0.869437  0.400758  1
  Ti  Ti3  1  0.656796  0.857177  0.413072  1
  Ti  Ti4  1  0.162996  0.369853  0.237215  1
  Ti  Ti5  1  0.656629  0.373364  0.235004  1
  Ti  Ti6  1  0.161164  0.873485  0.235416  1
  Ti  Ti7  1  0.662594  0.873898  0.234211  1
  Ti  Ti8  1  0.166666  0.375000  0.077689  1
  Ti  Ti9  1  0.666666  0.375000  0.077689  1
  Ti  Ti10  1  0.166666  0.875000  0.077689  1
  Ti  Ti11  1  0.666666  0.875000  0.077689  1
  Ti  Ti12  1  0.407444  0.388234  0.319451  1
  Ti  Ti13  1  0.914639  0.380703  0.316372  1
  Ti  Ti14  1  0.404038  0.871483  0.316508  1
  Ti  Ti15  1  0.901997  0.875665  0.318135  1
  Ti  Ti16  1  0.416667  0.375000  0.155379  1
  Ti  Ti17  1  0.916667  0.375000  0.155379  1
  Ti  Ti18  1  0.416667  0.875000  0.155379  1
  Ti  Ti19  1  0.916667  0.875000  0.155379  1
  Ti  Ti20  1  0.416667  0.375000  0.000000  1
  Ti  Ti21  1  0.916667  0.375000  0.000000  1
  Ti  Ti22  1  0.416667  0.875000  0.000000  1
  Ti  Ti23  1  0.916667  0.875000  0.000000  1
  Ti  Ti24  1  0.085361  0.119297  0.316371  1
  Ti  Ti25  1  0.592556  0.111766  0.319450  1
  Ti  Ti26  1  0.098003  0.624335  0.318134  1
  Ti  Ti27  1  0.595962  0.628517  0.316507  1
  Ti  Ti28  1  0.083333  0.125000  0.155379  1
  Ti  Ti29  1  0.583333  0.125000  0.155379  1
  Ti  Ti30  1  0.083333  0.625000  0.155379  1
  Ti  Ti31  1  0.583333  0.625000  0.155379  1
  Ti  Ti32  1  0.083333  0.125000  0.000000  1
  Ti  Ti33  1  0.583333  0.125000  0.000000  1
  Ti  Ti34  1  0.083333  0.625000  0.000000  1
  Ti  Ti35  1  0.583333  0.625000  0.000000  1
  Ti  Ti36  1  0.334678  0.137252  0.387057  1
  Ti  Ti37  1  0.852300  0.128110  0.401436  1
  Ti  Ti38  1  0.343203  0.642823  0.413072  1
  Ti  Ti39  1  0.849602  0.630563  0.400758  1
  Ti  Ti40  1  0.343370  0.126636  0.235004  1
  Ti  Ti41  1  0.837003  0.130147  0.237215  1
  Ti  Ti42  1  0.337405  0.626102  0.234211  1
  Ti  Ti43  1  0.838835  0.626515  0.235416  1
  Ti  Ti44  1  0.333333  0.125000  0.077689  1
  Ti  Ti45  1  0.833333  0.125000  0.077689  1
  Ti  Ti46  1  0.333333  0.625000  0.077689  1
  Ti  Ti47  1  0.833333  0.625000  0.077689  1
  Ti  Ti48  1  0.375000  0.375000  0.823738  1
  Ti  Ti49  1  0.875000  0.375000  0.823738  1
  Ti  Ti50  1  0.375000  0.875000  0.823738  1
  Ti  Ti51  1  0.875000  0.875000  0.823738  1
  Ti  Ti52  1  0.125000  0.125000  0.823738  1
  Ti  Ti53  1  0.625000  0.125000  0.823738  1
  Ti  Ti54  1  0.125000  0.625000  0.823738  1
  Ti  Ti55  1  0.625000  0.625000  0.823738  1
  Ti  Ti56  1  0.125000  0.375000  0.910084  1
  Ti  Ti57  1  0.625000  0.375000  0.910084  1
  Ti  Ti58  1  0.125000  0.875000  0.910084  1
  Ti  Ti59  1  0.625000  0.875000  0.910084  1
  Ti  Ti60  1  0.375000  0.125000  0.910084  1
  Ti  Ti61  1  0.875000  0.125000  0.910084  1
  Ti  Ti62  1  0.375000  0.625000  0.910084  1
  Ti  Ti63  1  0.875000  0.625000  0.910084  1
  Ti  Ti64  1  0.378380  0.366992  0.671898  1
  Ti  Ti65  1  0.877549  0.396962  0.647903  1
  Ti  Ti66  1  0.369699  0.886519  0.666787  1
  Ti  Ti67  1  0.910025  0.878382  0.647615  1
  Ti  Ti68  1  0.122451  0.103038  0.647903  1
  Ti  Ti69  1  0.621620  0.133008  0.671898  1
  Ti  Ti70  1  0.089975  0.621618  0.647615  1
  Ti  Ti71  1  0.630301  0.613481  0.666787  1
  Ti  Ti72  1  0.132192  0.351931  0.573539  1
  Ti  Ti73  1  0.626622  0.367977  0.579250  1
  Ti  Ti74  1  0.173524  0.848727  0.558218  1
  Ti  Ti75  1  0.678307  0.934527  0.571468  1
  Ti  Ti76  1  0.373378  0.132023  0.579250  1
  Ti  Ti77  1  0.867808  0.148069  0.573539  1
  Ti  Ti78  1  0.321693  0.565473  0.571468  1
  Ti  Ti79  1  0.826476  0.651273  0.558218  1
  Ti  Ti80  1  0.393964  0.355927  0.477315  1
  Ti  Ti81  1  0.879427  0.386481  0.490521  1
  Ti  Ti82  1  0.399849  0.922365  0.471133  1
  Ti  Ti83  1  0.917200  0.888912  0.485202  1
  Ti  Ti84  1  0.120573  0.113519  0.490521  1
  Ti  Ti85  1  0.606036  0.144073  0.477315  1
  Ti  Ti86  1  0.082800  0.611088  0.485202  1
  Ti  Ti87  1  0.600151  0.577635  0.471133  1
  Ti  Ti88  1  0.125000  0.875000  0.737395  1
  Ti  Ti89  1  0.625000  0.875000  0.737395  1
  Ti  Ti90  1  0.375000  0.625000  0.737395  1
  Ti  Ti91  1  0.875000  0.625000  0.737395  1
  Ti  Ti92  1  0.125000  0.375000  0.737395  1
  Ti  Ti93  1  0.625000  0.375000  0.737395  1
  Ti  Ti94  1  0.375000  0.125000  0.737395  1
  Ti  Ti95  1  0.875000  0.125000  0.737395  1
  Nb  Nb96  1  0.500000  0.750000  0.567284  1
