# generated using pymatgen
data_Ti
_symmetry_space_group_name_H-M   'P 1'
_cell_length_a   9.51302000
_cell_length_b   9.35086000
_cell_length_c   18.54723000
_cell_angle_alpha   90.00000000
_cell_angle_beta   90.00000000
_cell_angle_gamma   90.00000000
_symmetry_Int_Tables_number   1
_chemical_formula_structural   Ti
_chemical_formula_sum   Ti97
_cell_volume   1649.86732743
_cell_formula_units_Z   97
loop_
 _symmetry_equiv_pos_site_id
 _symmetry_equiv_pos_as_xyz
  1  'x, y, z'
loop_
 _atom_site_type_symbol
 _atom_site_label
 _atom_site_symmetry_multiplicity
 _atom_site_fract_x
 _atom_site_fract_y
 _atom_site_fract_z
 _atom_site_occupancy
  Ti  Ti0  1  0.141429  0.365898  0.405360  1
  Ti  Ti1  1  0.652757  0.355186  0.409878  1
  Ti  Ti2  1  0.163725  0.859045  0.405549  1
  Ti  Ti3  1  0.676755  0.909168  0.405155  1
  Ti  Ti4  1  0.154737  0.377515  0.238638  1
  Ti  Ti5  1  0.664531  0.362904  0.229547  1
  Ti  Ti6  1  0.159551  0.872009  0.233346  1
  Ti  Ti7  1  0.660967  0.871022  0.243352  1
  Ti  Ti8  1  0.166677  0.375063  0.077583  1
  Ti  Ti9  1  0.666712  0.375059  0.077576  1
  Ti  Ti10  1  0.166685  0.874980  0.077583  1
  Ti  Ti11  1  0.666653  0.874976  0.077602  1
  Ti  Ti12  1  0.405339  0.368265  0.316968  1
  Ti  Ti13  1  0.897933  0.376217  0.320744  1
  Ti  Ti14  1  0.379549  0.924729  0.315861  1
  Ti  Ti15  1  0.916017  0.876992  0.320557  1
  Ti  Ti16  1  0.416765  0.375262  0.155207  1
  Ti  Ti17  1  0.916679  0.374980  0.155180  1
  Ti  Ti18  1  0.416503  0.875002  0.155340  1
  Ti  Ti19  1  0.916697  0.875054  0.155146  1
  Ti  Ti20  1  0.416694  0.375038  -0.000030  1
  Ti  Ti21  1  0.916642  0.375012  -0.000054  1
  Ti  Ti22  1  0.416663  0.874969  -0.000012  1
  Ti  Ti23  1  0.916665  0.874994  -0.000071  1
  Ti  Ti24  1  0.102067  0.123784  0.320743  1
  Ti  Ti25  1  0.594661  0.131735  0.316968  1
  Ti  Ti26  1  0.083983  0.623008  0.320556  1
  Ti  Ti27  1  0.620451  0.575271  0.315860  1
  Ti  Ti28  1  0.083321  0.125031  0.155180  1
  Ti  Ti29  1  0.583233  0.124748  0.155210  1
  Ti  Ti30  1  0.083303  0.624960  0.155147  1
  Ti  Ti31  1  0.583498  0.625003  0.155340  1
  Ti  Ti32  1  0.083359  0.124987  -0.000054  1
  Ti  Ti33  1  0.583305  0.124962  -0.000029  1
  Ti  Ti34  1  0.083335  0.625010  -0.000072  1
  Ti  Ti35  1  0.583337  0.625031  -0.000014  1
  Ti  Ti36  1  0.347242  0.144814  0.409878  1
  Ti  Ti37  1  0.858570  0.134103  0.405360  1
  Ti  Ti38  1  0.323244  0.590833  0.405155  1
  Ti  Ti39  1  0.836274  0.640955  0.405549  1
  Ti  Ti40  1  0.335467  0.137098  0.229547  1
  Ti  Ti41  1  0.845262  0.122487  0.238638  1
  Ti  Ti42  1  0.339032  0.628980  0.243352  1
  Ti  Ti43  1  0.840448  0.627993  0.233346  1
  Ti  Ti44  1  0.333288  0.124947  0.077577  1
  Ti  Ti45  1  0.833322  0.124944  0.077584  1
  Ti  Ti46  1  0.333346  0.625032  0.077601  1
  Ti  Ti47  1  0.833315  0.625028  0.077582  1
  Ti  Ti48  1  0.375020  0.375017  0.823782  1
  Ti  Ti49  1  0.874945  0.375022  0.823798  1
  Ti  Ti50  1  0.375035  0.874961  0.823739  1
  Ti  Ti51  1  0.874968  0.874986  0.823757  1
  Ti  Ti52  1  0.125057  0.124969  0.823799  1
  Ti  Ti53  1  0.624980  0.124979  0.823783  1
  Ti  Ti54  1  0.125032  0.625009  0.823756  1
  Ti  Ti55  1  0.624967  0.625034  0.823738  1
  Ti  Ti56  1  0.124997  0.375019  0.910095  1
  Ti  Ti57  1  0.624998  0.375020  0.910104  1
  Ti  Ti58  1  0.125026  0.874977  0.910084  1
  Ti  Ti59  1  0.624979  0.874990  0.910093  1
  Ti  Ti60  1  0.375005  0.124973  0.910105  1
  Ti  Ti61  1  0.875004  0.124975  0.910096  1
  Ti  Ti62  1  0.375021  0.625002  0.910092  1
  Ti  Ti63  1  0.874975  0.625019  0.910083  1
  Ti  Ti64  1  0.394307  0.393979  0.652790  1
  Ti  Ti65  1  0.902152  0.379025  0.651605  1
  Ti  Ti66  1  0.394065  0.881293  0.653244  1
  Ti  Ti67  1  0.887312  0.883466  0.659510  1
  Ti  Ti68  1  0.097847  0.120974  0.651605  1
  Ti  Ti69  1  0.605693  0.106020  0.652790  1
  Ti  Ti70  1  0.112687  0.616532  0.659511  1
  Ti  Ti71  1  0.605935  0.618706  0.653244  1
  Ti  Ti72  1  0.151539  0.375284  0.569073  1
  Ti  Ti73  1  0.653131  0.357678  0.582682  1
  Ti  Ti74  1  0.139895  0.862755  0.579360  1
  Ti  Ti75  1  0.650440  0.857700  0.564379  1
  Ti  Ti76  1  0.346869  0.142321  0.582682  1
  Ti  Ti77  1  0.848461  0.124716  0.569073  1
  Ti  Ti78  1  0.349559  0.642299  0.564379  1
  Ti  Ti79  1  0.860105  0.637245  0.579360  1
  Ti  Ti80  1  0.405244  0.376992  0.496359  1
  Ti  Ti81  1  0.896766  0.378957  0.490683  1
  Ti  Ti82  1  0.384639  0.907149  0.499488  1
  Ti  Ti83  1  0.913178  0.878823  0.487361  1
  Ti  Ti84  1  0.103234  0.121043  0.490683  1
  Ti  Ti85  1  0.594756  0.123008  0.496359  1
  Ti  Ti86  1  0.086822  0.621176  0.487361  1
  Ti  Ti87  1  0.615361  0.592851  0.499488  1
  Ti  Ti88  1  0.125107  0.874930  0.737472  1
  Ti  Ti89  1  0.625028  0.875029  0.737435  1
  Ti  Ti90  1  0.374970  0.624967  0.737435  1
  Ti  Ti91  1  0.874890  0.625064  0.737472  1
  Ti  Ti92  1  0.124985  0.375001  0.737516  1
  Ti  Ti93  1  0.624991  0.375019  0.737475  1
  Ti  Ti94  1  0.375007  0.124973  0.737475  1
  Ti  Ti95  1  0.875011  0.124989  0.737517  1
  Ti  Ti96  1  0.500000  0.750000  0.380720  1
