# generated using pymatgen
data_Ti
_symmetry_space_group_name_H-M   'P 1'
_cell_length_a   9.51302000
_cell_length_b   9.35086000
_cell_length_c   18.54723000
_cell_angle_alpha   90.00000000
_cell_angle_beta   90.00000000
_cell_angle_gamma   90.00000000
_symmetry_Int_Tables_number   1
_chemical_formula_structural   Ti
_chemical_formula_sum   Ti97
_cell_volume   1649.86732743
_cell_formula_units_Z   97
loop_
 _symmetry_equiv_pos_site_id
 _symmetry_equiv_pos_as_xyz
  1  'x, y, z'
loop_
 _atom_site_type_symbol
 _atom_site_label
 _atom_site_symmetry_multiplicity
 _atom_site_fract_x
 _atom_site_fract_y
 _atom_site_fract_z
 _atom_site_occupancy
  Ti  Ti0  1  0.147345  0.375540  0.400673  1
  Ti  Ti1  1  0.650110  0.382114  0.401186  1
  Ti  Ti2  1  0.159026  0.890418  0.389156  1
  Ti  Ti3  1  0.650726  0.898795  0.415569  1
  Ti  Ti4  1  0.161396  0.378096  0.237817  1
  Ti  Ti5  1  0.661044  0.375375  0.234713  1
  Ti  Ti6  1  0.158420  0.875617  0.235630  1
  Ti  Ti7  1  0.663039  0.877663  0.232500  1
  Ti  Ti8  1  0.166666  0.375000  0.077689  1
  Ti  Ti9  1  0.666666  0.375000  0.077689  1
  Ti  Ti10  1  0.166666  0.875000  0.077689  1
  Ti  Ti11  1  0.666666  0.875000  0.077689  1
  Ti  Ti12  1  0.412856  0.369054  0.315350  1
  Ti  Ti13  1  0.903503  0.378614  0.317634  1
  Ti  Ti14  1  0.415640  0.872121  0.318258  1
  Ti  Ti15  1  0.895076  0.872230  0.317451  1
  Ti  Ti16  1  0.416667  0.375000  0.155379  1
  Ti  Ti17  1  0.916667  0.375000  0.155379  1
  Ti  Ti18  1  0.416667  0.875000  0.155379  1
  Ti  Ti19  1  0.916667  0.875000  0.155379  1
  Ti  Ti20  1  0.416667  0.375000  0.000000  1
  Ti  Ti21  1  0.916667  0.375000  0.000000  1
  Ti  Ti22  1  0.416667  0.875000  0.000000  1
  Ti  Ti23  1  0.916667  0.875000  0.000000  1
  Ti  Ti24  1  0.087144  0.130946  0.315349  1
  Ti  Ti25  1  0.596497  0.121386  0.317633  1
  Ti  Ti26  1  0.084360  0.627879  0.318257  1
  Ti  Ti27  1  0.604924  0.627770  0.317450  1
  Ti  Ti28  1  0.083333  0.125000  0.155379  1
  Ti  Ti29  1  0.583333  0.125000  0.155379  1
  Ti  Ti30  1  0.083333  0.625000  0.155379  1
  Ti  Ti31  1  0.583333  0.625000  0.155379  1
  Ti  Ti32  1  0.083333  0.125000  0.000000  1
  Ti  Ti33  1  0.583333  0.125000  0.000000  1
  Ti  Ti34  1  0.083333  0.625000  0.000000  1
  Ti  Ti35  1  0.583333  0.625000  0.000000  1
  Ti  Ti36  1  0.352654  0.124460  0.400673  1
  Ti  Ti37  1  0.849889  0.117886  0.401186  1
  Ti  Ti38  1  0.340973  0.609582  0.389156  1
  Ti  Ti39  1  0.849273  0.601205  0.415569  1
  Ti  Ti40  1  0.338603  0.121904  0.237817  1
  Ti  Ti41  1  0.838955  0.124625  0.234713  1
  Ti  Ti42  1  0.341579  0.624383  0.235630  1
  Ti  Ti43  1  0.836960  0.622337  0.232500  1
  Ti  Ti44  1  0.333333  0.125000  0.077689  1
  Ti  Ti45  1  0.833333  0.125000  0.077689  1
  Ti  Ti46  1  0.333333  0.625000  0.077689  1
  Ti  Ti47  1  0.833333  0.625000  0.077689  1
  Ti  Ti48  1  0.375000  0.375000  0.823738  1
  Ti  Ti49  1  0.875000  0.375000  0.823738  1
  Ti  Ti50  1  0.375000  0.875000  0.823738  1
  Ti  Ti51  1  0.875000  0.875000  0.823738  1
  Ti  Ti52  1  0.125000  0.125000  0.823738  1
  Ti  Ti53  1  0.625000  0.125000  0.823738  1
  Ti  Ti54  1  0.125000  0.625000  0.823738  1
  Ti  Ti55  1  0.625000  0.625000  0.823738  1
  Ti  Ti56  1  0.125000  0.375000  0.910084  1
  Ti  Ti57  1  0.625000  0.375000  0.910084  1
  Ti  Ti58  1  0.125000  0.875000  0.910084  1
  Ti  Ti59  1  0.625000  0.875000  0.910084  1
  Ti  Ti60  1  0.375000  0.125000  0.910084  1
  Ti  Ti61  1  0.875000  0.125000  0.910084  1
  Ti  Ti62  1  0.375000  0.625000  0.910084  1
  Ti  Ti63  1  0.875000  0.625000  0.910084  1
  Ti  Ti64  1  0.398659  0.374152  0.647135  1
  Ti  Ti65  1  0.881784  0.341615  0.648896  1
  Ti  Ti66  1  0.367835  0.874605  0.672990  1
  Ti  Ti67  1  0.885299  0.879855  0.667395  1
  Ti  Ti68  1  0.101341  0.125848  0.647135  1
  Ti  Ti69  1  0.618216  0.158385  0.648896  1
  Ti  Ti70  1  0.132165  0.625395  0.672990  1
  Ti  Ti71  1  0.614701  0.620145  0.667395  1
  Ti  Ti72  1  0.150784  0.382266  0.573700  1
  Ti  Ti73  1  0.660009  0.419749  0.561724  1
  Ti  Ti74  1  0.132313  0.870648  0.579372  1
  Ti  Ti75  1  0.570037  0.918394  0.574675  1
  Ti  Ti76  1  0.349216  0.117734  0.573700  1
  Ti  Ti77  1  0.839991  0.080251  0.561724  1
  Ti  Ti78  1  0.367687  0.629352  0.579372  1
  Ti  Ti79  1  0.929963  0.581606  0.574675  1
  Ti  Ti80  1  0.394469  0.375562  0.490042  1
  Ti  Ti81  1  0.899008  0.340822  0.488957  1
  Ti  Ti82  1  0.365059  0.859575  0.479333  1
  Ti  Ti83  1  0.923301  0.862775  0.471967  1
  Ti  Ti84  1  0.105531  0.124438  0.490042  1
  Ti  Ti85  1  0.600992  0.159178  0.488957  1
  Ti  Ti86  1  0.134941  0.640425  0.479333  1
  Ti  Ti87  1  0.576699  0.637225  0.471967  1
  Ti  Ti88  1  0.125000  0.875000  0.737395  1
  Ti  Ti89  1  0.625000  0.875000  0.737395  1
  Ti  Ti90  1  0.375000  0.625000  0.737395  1
  Ti  Ti91  1  0.875000  0.625000  0.737395  1
  Ti  Ti92  1  0.125000  0.375000  0.737395  1
  Ti  Ti93  1  0.625000  0.375000  0.737395  1
  Ti  Ti94  1  0.375000  0.125000  0.737395  1
  Ti  Ti95  1  0.875000  0.125000  0.737395  1
  Ti  Ti96  1  0.750000  0.750000  0.566288  1
