# generated using pymatgen
data_Ti96Mo
_symmetry_space_group_name_H-M   'P 1'
_cell_length_a   9.51302000
_cell_length_b   9.35086000
_cell_length_c   18.54723000
_cell_angle_alpha   90.00000000
_cell_angle_beta   90.00000000
_cell_angle_gamma   90.00000000
_symmetry_Int_Tables_number   1
_chemical_formula_structural   Ti96Mo
_chemical_formula_sum   'Ti96 Mo1'
_cell_volume   1649.86732743
_cell_formula_units_Z   1
loop_
 _symmetry_equiv_pos_site_id
 _symmetry_equiv_pos_as_xyz
  1  'x, y, z'
loop_
 _atom_site_type_symbol
 _atom_site_label
 _atom_site_symmetry_multiplicity
 _atom_site_fract_x
 _atom_site_fract_y
 _atom_site_fract_z
 _atom_site_occupancy
  Ti  Ti0  1  0.141302  0.381803  0.401296  1
  Ti  Ti1  1  0.650581  0.362189  0.392558  1
  Ti  Ti2  1  0.168332  0.883020  0.403896  1
  Ti  Ti3  1  0.648669  0.918404  0.394375  1
  Ti  Ti4  1  0.165173  0.377807  0.235172  1
  Ti  Ti5  1  0.659886  0.383176  0.235935  1
  Ti  Ti6  1  0.156909  0.875141  0.235900  1
  Ti  Ti7  1  0.658884  0.872485  0.235537  1
  Ti  Ti8  1  0.166666  0.375000  0.077689  1
  Ti  Ti9  1  0.666666  0.375000  0.077689  1
  Ti  Ti10  1  0.166666  0.875000  0.077689  1
  Ti  Ti11  1  0.666666  0.875000  0.077689  1
  Ti  Ti12  1  0.404120  0.376949  0.319280  1
  Ti  Ti13  1  0.915895  0.365205  0.306909  1
  Ti  Ti14  1  0.404008  0.870302  0.316497  1
  Ti  Ti15  1  0.904216  0.857114  0.330997  1
  Ti  Ti16  1  0.416667  0.375000  0.155379  1
  Ti  Ti17  1  0.916667  0.375000  0.155379  1
  Ti  Ti18  1  0.416667  0.875000  0.155379  1
  Ti  Ti19  1  0.916667  0.875000  0.155379  1
  Ti  Ti20  1  0.416667  0.375000  0.000000  1
  Ti  Ti21  1  0.916667  0.375000  0.000000  1
  Ti  Ti22  1  0.416667  0.875000  0.000000  1
  Ti  Ti23  1  0.916667  0.875000  0.000000  1
  Ti  Ti24  1  0.095880  0.123051  0.319279  1
  Ti  Ti25  1  0.584105  0.134795  0.306908  1
  Ti  Ti26  1  0.095992  0.629698  0.316496  1
  Ti  Ti27  1  0.595784  0.642886  0.330996  1
  Ti  Ti28  1  0.083333  0.125000  0.155379  1
  Ti  Ti29  1  0.583333  0.125000  0.155379  1
  Ti  Ti30  1  0.083333  0.625000  0.155379  1
  Ti  Ti31  1  0.583333  0.625000  0.155379  1
  Ti  Ti32  1  0.083333  0.125000  0.000000  1
  Ti  Ti33  1  0.583333  0.125000  0.000000  1
  Ti  Ti34  1  0.083333  0.625000  0.000000  1
  Ti  Ti35  1  0.583333  0.625000  0.000000  1
  Ti  Ti36  1  0.358697  0.118197  0.401296  1
  Ti  Ti37  1  0.849418  0.137811  0.392558  1
  Ti  Ti38  1  0.331667  0.616980  0.403896  1
  Ti  Ti39  1  0.851330  0.581596  0.394375  1
  Ti  Ti40  1  0.334826  0.122193  0.235172  1
  Ti  Ti41  1  0.840113  0.116824  0.235935  1
  Ti  Ti42  1  0.343090  0.624859  0.235900  1
  Ti  Ti43  1  0.841115  0.627515  0.235537  1
  Ti  Ti44  1  0.333333  0.125000  0.077689  1
  Ti  Ti45  1  0.833333  0.125000  0.077689  1
  Ti  Ti46  1  0.333333  0.625000  0.077689  1
  Ti  Ti47  1  0.833333  0.625000  0.077689  1
  Ti  Ti48  1  0.375000  0.375000  0.823738  1
  Ti  Ti49  1  0.875000  0.375000  0.823738  1
  Ti  Ti50  1  0.375000  0.875000  0.823738  1
  Ti  Ti51  1  0.875000  0.875000  0.823738  1
  Ti  Ti52  1  0.125000  0.125000  0.823738  1
  Ti  Ti53  1  0.625000  0.125000  0.823738  1
  Ti  Ti54  1  0.125000  0.625000  0.823738  1
  Ti  Ti55  1  0.625000  0.625000  0.823738  1
  Ti  Ti56  1  0.125000  0.375000  0.910084  1
  Ti  Ti57  1  0.625000  0.375000  0.910084  1
  Ti  Ti58  1  0.125000  0.875000  0.910084  1
  Ti  Ti59  1  0.625000  0.875000  0.910084  1
  Ti  Ti60  1  0.375000  0.125000  0.910084  1
  Ti  Ti61  1  0.875000  0.125000  0.910084  1
  Ti  Ti62  1  0.375000  0.625000  0.910084  1
  Ti  Ti63  1  0.875000  0.625000  0.910084  1
  Ti  Ti64  1  0.386054  0.367549  0.645617  1
  Ti  Ti65  1  0.889257  0.368422  0.670099  1
  Ti  Ti66  1  0.386455  0.857102  0.660203  1
  Ti  Ti67  1  0.898472  0.860301  0.642328  1
  Ti  Ti68  1  0.113946  0.132451  0.645617  1
  Ti  Ti69  1  0.610743  0.131578  0.670099  1
  Ti  Ti70  1  0.113545  0.642898  0.660203  1
  Ti  Ti71  1  0.601528  0.639699  0.642328  1
  Ti  Ti72  1  0.130716  0.397237  0.573805  1
  Ti  Ti73  1  0.650204  0.367786  0.583441  1
  Ti  Ti74  1  0.165855  0.881168  0.566238  1
  Ti  Ti75  1  0.635698  0.909888  0.579581  1
  Ti  Ti76  1  0.369284  0.102763  0.573805  1
  Ti  Ti77  1  0.849796  0.132214  0.583441  1
  Ti  Ti78  1  0.334145  0.618832  0.566238  1
  Ti  Ti79  1  0.864302  0.590112  0.579581  1
  Ti  Ti80  1  0.376814  0.355576  0.488436  1
  Ti  Ti81  1  0.897308  0.351307  0.490372  1
  Ti  Ti82  1  0.426434  0.848830  0.481648  1
  Ti  Ti83  1  -0.072894  -0.069060  0.486201  1
  Ti  Ti84  1  0.123186  0.144424  0.488436  1
  Ti  Ti85  1  0.602692  0.148693  0.490372  1
  Ti  Ti86  1  0.073566  0.651170  0.481648  1
  Ti  Ti87  1  0.572894  0.569060  0.486201  1
  Ti  Ti88  1  0.125000  0.875000  0.737395  1
  Ti  Ti89  1  0.625000  0.875000  0.737395  1
  Ti  Ti90  1  0.375000  0.625000  0.737395  1
  Ti  Ti91  1  0.875000  0.625000  0.737395  1
  Ti  Ti92  1  0.125000  0.375000  0.737395  1
  Ti  Ti93  1  0.625000  0.375000  0.737395  1
  Ti  Ti94  1  0.375000  0.125000  0.737395  1
  Ti  Ti95  1  0.875000  0.125000  0.737395  1
  Mo  Mo96  1  0.750000  0.750000  0.486728  1
