# generated using pymatgen
data_Ti96Nb
_symmetry_space_group_name_H-M   'P 1'
_cell_length_a   9.51302000
_cell_length_b   9.35086000
_cell_length_c   18.54723000
_cell_angle_alpha   90.00000000
_cell_angle_beta   90.00000000
_cell_angle_gamma   90.00000000
_symmetry_Int_Tables_number   1
_chemical_formula_structural   Ti96Nb
_chemical_formula_sum   'Ti96 Nb1'
_cell_volume   1649.86732743
_cell_formula_units_Z   1
loop_
 _symmetry_equiv_pos_site_id
 _symmetry_equiv_pos_as_xyz
  1  'x, y, z'
loop_
 _atom_site_type_symbol
 _atom_site_label
 _atom_site_symmetry_multiplicity
 _atom_site_fract_x
 _atom_site_fract_y
 _atom_site_fract_z
 _atom_site_occupancy
  Ti  Ti0  1  0.143995  0.378454  0.399741  1
  Ti  Ti1  1  0.651555  0.362866  0.392808  1
  Ti  Ti2  1  0.167993  0.881423  0.402920  1
  Ti  Ti3  1  0.646811  0.917674  0.392381  1
  Ti  Ti4  1  0.165293  0.376900  0.235295  1
  Ti  Ti5  1  0.660395  0.382719  0.235709  1
  Ti  Ti6  1  0.157185  0.875070  0.235741  1
  Ti  Ti7  1  0.658829  0.872684  0.235101  1
  Ti  Ti8  1  0.166666  0.375000  0.077689  1
  Ti  Ti9  1  0.666666  0.375000  0.077689  1
  Ti  Ti10  1  0.166666  0.875000  0.077689  1
  Ti  Ti11  1  0.666666  0.875000  0.077689  1
  Ti  Ti12  1  0.406203  0.378932  0.319077  1
  Ti  Ti13  1  0.915685  0.364984  0.307000  1
  Ti  Ti14  1  0.404772  0.872056  0.315914  1
  Ti  Ti15  1  0.904185  0.858017  0.329382  1
  Ti  Ti16  1  0.416667  0.375000  0.155379  1
  Ti  Ti17  1  0.916667  0.375000  0.155379  1
  Ti  Ti18  1  0.416667  0.875000  0.155379  1
  Ti  Ti19  1  0.916667  0.875000  0.155379  1
  Ti  Ti20  1  0.416667  0.375000  0.000000  1
  Ti  Ti21  1  0.916667  0.375000  0.000000  1
  Ti  Ti22  1  0.416667  0.875000  0.000000  1
  Ti  Ti23  1  0.916667  0.875000  0.000000  1
  Ti  Ti24  1  0.093797  0.121068  0.319076  1
  Ti  Ti25  1  0.584315  0.135016  0.306999  1
  Ti  Ti26  1  0.095228  0.627944  0.315913  1
  Ti  Ti27  1  0.595815  0.641983  0.329381  1
  Ti  Ti28  1  0.083333  0.125000  0.155379  1
  Ti  Ti29  1  0.583333  0.125000  0.155379  1
  Ti  Ti30  1  0.083333  0.625000  0.155379  1
  Ti  Ti31  1  0.583333  0.625000  0.155379  1
  Ti  Ti32  1  0.083333  0.125000  0.000000  1
  Ti  Ti33  1  0.583333  0.125000  0.000000  1
  Ti  Ti34  1  0.083333  0.625000  0.000000  1
  Ti  Ti35  1  0.583333  0.625000  0.000000  1
  Ti  Ti36  1  0.356004  0.121546  0.399741  1
  Ti  Ti37  1  0.848444  0.137134  0.392808  1
  Ti  Ti38  1  0.332006  0.618577  0.402920  1
  Ti  Ti39  1  0.853188  0.582326  0.392381  1
  Ti  Ti40  1  0.334706  0.123100  0.235295  1
  Ti  Ti41  1  0.839604  0.117281  0.235709  1
  Ti  Ti42  1  0.342814  0.624930  0.235741  1
  Ti  Ti43  1  0.841170  0.627316  0.235101  1
  Ti  Ti44  1  0.333333  0.125000  0.077689  1
  Ti  Ti45  1  0.833333  0.125000  0.077689  1
  Ti  Ti46  1  0.333333  0.625000  0.077689  1
  Ti  Ti47  1  0.833333  0.625000  0.077689  1
  Ti  Ti48  1  0.375000  0.375000  0.823738  1
  Ti  Ti49  1  0.875000  0.375000  0.823738  1
  Ti  Ti50  1  0.375000  0.875000  0.823738  1
  Ti  Ti51  1  0.875000  0.875000  0.823738  1
  Ti  Ti52  1  0.125000  0.125000  0.823738  1
  Ti  Ti53  1  0.625000  0.125000  0.823738  1
  Ti  Ti54  1  0.125000  0.625000  0.823738  1
  Ti  Ti55  1  0.625000  0.625000  0.823738  1
  Ti  Ti56  1  0.125000  0.375000  0.910084  1
  Ti  Ti57  1  0.625000  0.375000  0.910084  1
  Ti  Ti58  1  0.125000  0.875000  0.910084  1
  Ti  Ti59  1  0.625000  0.875000  0.910084  1
  Ti  Ti60  1  0.375000  0.125000  0.910084  1
  Ti  Ti61  1  0.875000  0.125000  0.910084  1
  Ti  Ti62  1  0.375000  0.625000  0.910084  1
  Ti  Ti63  1  0.875000  0.625000  0.910084  1
  Ti  Ti64  1  0.389914  0.370464  0.644763  1
  Ti  Ti65  1  0.889178  0.365793  0.669417  1
  Ti  Ti66  1  0.383809  0.858728  0.662546  1
  Ti  Ti67  1  0.896689  0.860081  0.643423  1
  Ti  Ti68  1  0.110086  0.129536  0.644763  1
  Ti  Ti69  1  0.610822  0.134207  0.669417  1
  Ti  Ti70  1  0.116191  0.641272  0.662546  1
  Ti  Ti71  1  0.603311  0.639919  0.643423  1
  Ti  Ti72  1  0.133743  0.394641  0.574662  1
  Ti  Ti73  1  0.652848  0.369666  0.581785  1
  Ti  Ti74  1  0.164112  0.878042  0.566416  1
  Ti  Ti75  1  0.627312  0.912471  0.582409  1
  Ti  Ti76  1  0.366257  0.105359  0.574662  1
  Ti  Ti77  1  0.847152  0.130334  0.581785  1
  Ti  Ti78  1  0.335888  0.621958  0.566416  1
  Ti  Ti79  1  0.872688  0.587529  0.582409  1
  Ti  Ti80  1  0.376933  0.356555  0.488187  1
  Ti  Ti81  1  0.899595  0.353447  0.490203  1
  Ti  Ti82  1  0.424117  0.852850  0.480576  1
  Ti  Ti83  1  -0.066690  -0.068575  0.484982  1
  Ti  Ti84  1  0.123067  0.143445  0.488187  1
  Ti  Ti85  1  0.600405  0.146553  0.490203  1
  Ti  Ti86  1  0.075883  0.647150  0.480576  1
  Ti  Ti87  1  0.566690  0.568575  0.484982  1
  Ti  Ti88  1  0.125000  0.875000  0.737395  1
  Ti  Ti89  1  0.625000  0.875000  0.737395  1
  Ti  Ti90  1  0.375000  0.625000  0.737395  1
  Ti  Ti91  1  0.875000  0.625000  0.737395  1
  Ti  Ti92  1  0.125000  0.375000  0.737395  1
  Ti  Ti93  1  0.625000  0.375000  0.737395  1
  Ti  Ti94  1  0.375000  0.125000  0.737395  1
  Ti  Ti95  1  0.875000  0.125000  0.737395  1
  Nb  Nb96  1  0.750000  0.750000  0.489460  1
