# generated using pymatgen
data_Ti96Nb
_symmetry_space_group_name_H-M   'P 1'
_cell_length_a   9.51302000
_cell_length_b   9.35086000
_cell_length_c   18.54723000
_cell_angle_alpha   90.00000000
_cell_angle_beta   90.00000000
_cell_angle_gamma   90.00000000
_symmetry_Int_Tables_number   1
_chemical_formula_structural   Ti96Nb
_chemical_formula_sum   'Ti96 Nb1'
_cell_volume   1649.86732743
_cell_formula_units_Z   1
loop_
 _symmetry_equiv_pos_site_id
 _symmetry_equiv_pos_as_xyz
  1  'x, y, z'
loop_
 _atom_site_type_symbol
 _atom_site_label
 _atom_site_symmetry_multiplicity
 _atom_site_fract_x
 _atom_site_fract_y
 _atom_site_fract_z
 _atom_site_occupancy
  Ti  Ti0  1  0.148626  0.375056  0.404248  1
  Ti  Ti1  1  0.643241  0.332481  0.407238  1
  Ti  Ti2  1  0.121918  0.852868  0.407161  1
  Ti  Ti3  1  0.685652  0.882218  0.402482  1
  Ti  Ti4  1  0.157486  0.370164  0.237589  1
  Ti  Ti5  1  0.658899  0.366256  0.234022  1
  Ti  Ti6  1  0.158131  0.870212  0.231713  1
  Ti  Ti7  1  0.664360  0.877778  0.233114  1
  Ti  Ti8  1  0.166720  0.375066  0.077481  1
  Ti  Ti9  1  0.666687  0.374977  0.077431  1
  Ti  Ti10  1  0.166830  0.875005  0.077510  1
  Ti  Ti11  1  0.666607  0.874995  0.077582  1
  Ti  Ti12  1  0.410900  0.389736  0.318248  1
  Ti  Ti13  1  0.899844  0.372011  0.321451  1
  Ti  Ti14  1  0.357497  0.920732  0.328669  1
  Ti  Ti15  1  0.913058  0.881998  0.312831  1
  Ti  Ti16  1  0.416702  0.375141  0.154991  1
  Ti  Ti17  1  0.916753  0.374808  0.154947  1
  Ti  Ti18  1  0.416756  0.874948  0.155252  1
  Ti  Ti19  1  0.916648  0.875188  0.154893  1
  Ti  Ti20  1  0.416656  0.375034  -0.000088  1
  Ti  Ti21  1  0.916645  0.374982  -0.000123  1
  Ti  Ti22  1  0.416676  0.874972  -0.000003  1
  Ti  Ti23  1  0.916656  0.874997  -0.000106  1
  Ti  Ti24  1  0.100156  0.127992  0.321450  1
  Ti  Ti25  1  0.589100  0.110266  0.318247  1
  Ti  Ti26  1  0.086942  0.618004  0.312830  1
  Ti  Ti27  1  0.642503  0.579271  0.328669  1
  Ti  Ti28  1  0.083246  0.125224  0.154945  1
  Ti  Ti29  1  0.583298  0.124891  0.154993  1
  Ti  Ti30  1  0.083352  0.624846  0.154894  1
  Ti  Ti31  1  0.583246  0.625072  0.155251  1
  Ti  Ti32  1  0.083356  0.125027  -0.000124  1
  Ti  Ti33  1  0.583345  0.124978  -0.000086  1
  Ti  Ti34  1  0.083345  0.625013  -0.000106  1
  Ti  Ti35  1  0.583326  0.625031  -0.000005  1
  Ti  Ti36  1  0.356758  0.167519  0.407238  1
  Ti  Ti37  1  0.851373  0.124944  0.404248  1
  Ti  Ti38  1  0.314347  0.617783  0.402482  1
  Ti  Ti39  1  0.878081  0.647133  0.407161  1
  Ti  Ti40  1  0.341100  0.133751  0.234022  1
  Ti  Ti41  1  0.842514  0.129843  0.237589  1
  Ti  Ti42  1  0.335639  0.622228  0.233114  1
  Ti  Ti43  1  0.841868  0.629796  0.231713  1
  Ti  Ti44  1  0.333313  0.125049  0.077431  1
  Ti  Ti45  1  0.833279  0.124958  0.077482  1
  Ti  Ti46  1  0.333392  0.625026  0.077581  1
  Ti  Ti47  1  0.833169  0.625019  0.077509  1
  Ti  Ti48  1  0.375021  0.375093  0.823885  1
  Ti  Ti49  1  0.874966  0.374977  0.823906  1
  Ti  Ti50  1  0.375049  0.874936  0.823814  1
  Ti  Ti51  1  0.874995  0.874943  0.823840  1
  Ti  Ti52  1  0.125032  0.124999  0.823906  1
  Ti  Ti53  1  0.624981  0.124889  0.823886  1
  Ti  Ti54  1  0.125008  0.625039  0.823841  1
  Ti  Ti55  1  0.624956  0.625045  0.823813  1
  Ti  Ti56  1  0.125063  0.375117  0.910183  1
  Ti  Ti57  1  0.624981  0.375121  0.910220  1
  Ti  Ti58  1  0.125107  0.874919  0.910220  1
  Ti  Ti59  1  0.624964  0.874890  0.910277  1
  Ti  Ti60  1  0.375024  0.124858  0.910223  1
  Ti  Ti61  1  0.874942  0.124866  0.910184  1
  Ti  Ti62  1  0.375038  0.625083  0.910276  1
  Ti  Ti63  1  0.874897  0.625057  0.910219  1
  Ti  Ti64  1  0.394575  0.384209  0.657089  1
  Ti  Ti65  1  0.895860  0.378928  0.650474  1
  Ti  Ti66  1  0.395536  0.889508  0.649275  1
  Ti  Ti67  1  0.885287  0.886765  0.663120  1
  Ti  Ti68  1  0.104139  0.121067  0.650474  1
  Ti  Ti69  1  0.605424  0.115785  0.657089  1
  Ti  Ti70  1  0.114712  0.613228  0.663121  1
  Ti  Ti71  1  0.604464  0.610487  0.649276  1
  Ti  Ti72  1  0.150616  0.367098  0.572140  1
  Ti  Ti73  1  0.645141  0.350754  0.573647  1
  Ti  Ti74  1  0.133751  0.860958  0.582702  1
  Ti  Ti75  1  0.650183  0.862665  0.575393  1
  Ti  Ti76  1  0.354859  0.149245  0.573647  1
  Ti  Ti77  1  0.849383  0.132900  0.572140  1
  Ti  Ti78  1  0.349817  0.637333  0.575393  1
  Ti  Ti79  1  0.866248  0.639040  0.582702  1
  Ti  Ti80  1  0.406855  0.400952  0.492485  1
  Ti  Ti81  1  0.897840  0.375012  0.485588  1
  Ti  Ti82  1  0.351751  0.914273  0.486391  1
  Ti  Ti83  1  0.903806  0.889446  0.497226  1
  Ti  Ti84  1  0.102160  0.124988  0.485588  1
  Ti  Ti85  1  0.593145  0.099048  0.492485  1
  Ti  Ti86  1  0.096194  0.610553  0.497226  1
  Ti  Ti87  1  0.648249  0.585727  0.486391  1
  Ti  Ti88  1  0.125027  0.875035  0.737680  1
  Ti  Ti89  1  0.624968  0.874886  0.737557  1
  Ti  Ti90  1  0.375029  0.625098  0.737554  1
  Ti  Ti91  1  0.874968  0.624941  0.737680  1
  Ti  Ti92  1  0.124920  0.374993  0.737701  1
  Ti  Ti93  1  0.624963  0.374948  0.737730  1
  Ti  Ti94  1  0.375028  0.125025  0.737729  1
  Ti  Ti95  1  0.875075  0.124983  0.737701  1
  Nb  Nb96  1  0.500000  0.750000  0.396109  1
