# generated using pymatgen
data_Ti96Al
_symmetry_space_group_name_H-M   'P 1'
_cell_length_a   9.51302000
_cell_length_b   9.35086000
_cell_length_c   18.54723000
_cell_angle_alpha   90.00000000
_cell_angle_beta   90.00000000
_cell_angle_gamma   90.00000000
_symmetry_Int_Tables_number   1
_chemical_formula_structural   Ti96Al
_chemical_formula_sum   'Ti96 Al1'
_cell_volume   1649.86732743
_cell_formula_units_Z   1
loop_
 _symmetry_equiv_pos_site_id
 _symmetry_equiv_pos_as_xyz
  1  'x, y, z'
loop_
 _atom_site_type_symbol
 _atom_site_label
 _atom_site_symmetry_multiplicity
 _atom_site_fract_x
 _atom_site_fract_y
 _atom_site_fract_z
 _atom_site_occupancy
  Ti  Ti0  1  0.143573  0.374895  0.405056  1
  Ti  Ti1  1  0.654905  0.345001  0.395540  1
  Ti  Ti2  1  0.135308  0.858401  0.397014  1
  Ti  Ti3  1  0.664516  0.865739  0.404568  1
  Ti  Ti4  1  0.162840  0.371361  0.235981  1
  Ti  Ti5  1  0.657787  0.374244  0.234473  1
  Ti  Ti6  1  0.163343  0.874164  0.235052  1
  Ti  Ti7  1  0.656780  0.870502  0.235608  1
  Ti  Ti8  1  0.166666  0.375032  0.077669  1
  Ti  Ti9  1  0.666673  0.375009  0.077647  1
  Ti  Ti10  1  0.166674  0.874988  0.077688  1
  Ti  Ti11  1  0.666671  0.874989  0.077673  1
  Ti  Ti12  1  0.405778  0.389182  0.316923  1
  Ti  Ti13  1  0.904914  0.376717  0.318229  1
  Ti  Ti14  1  0.399326  0.885118  0.326727  1
  Ti  Ti15  1  0.907027  0.881315  0.311836  1
  Ti  Ti16  1  0.416677  0.375009  0.155280  1
  Ti  Ti17  1  0.916676  0.374984  0.155277  1
  Ti  Ti18  1  0.416666  0.875009  0.155324  1
  Ti  Ti19  1  0.916682  0.874980  0.155298  1
  Ti  Ti20  1  0.416663  0.375029  -0.000017  1
  Ti  Ti21  1  0.916641  0.375019  -0.000008  1
  Ti  Ti22  1  0.416663  0.874983  -0.000026  1
  Ti  Ti23  1  0.916652  0.874987  -0.000012  1
  Ti  Ti24  1  0.095086  0.123283  0.318228  1
  Ti  Ti25  1  0.594222  0.110819  0.316923  1
  Ti  Ti26  1  0.092973  0.618685  0.311835  1
  Ti  Ti27  1  0.600674  0.614882  0.326726  1
  Ti  Ti28  1  0.083325  0.125022  0.155277  1
  Ti  Ti29  1  0.583323  0.124998  0.155280  1
  Ti  Ti30  1  0.083318  0.625027  0.155298  1
  Ti  Ti31  1  0.583334  0.624997  0.155324  1
  Ti  Ti32  1  0.083360  0.124987  -0.000007  1
  Ti  Ti33  1  0.583338  0.124978  -0.000016  1
  Ti  Ti34  1  0.083349  0.625022  -0.000011  1
  Ti  Ti35  1  0.583338  0.625026  -0.000026  1
  Ti  Ti36  1  0.345094  0.154999  0.395540  1
  Ti  Ti37  1  0.856426  0.125105  0.405056  1
  Ti  Ti38  1  0.335483  0.634261  0.404568  1
  Ti  Ti39  1  0.864691  0.641599  0.397014  1
  Ti  Ti40  1  0.342212  0.125757  0.234473  1
  Ti  Ti41  1  0.837159  0.128640  0.235981  1
  Ti  Ti42  1  0.343219  0.629499  0.235608  1
  Ti  Ti43  1  0.836657  0.625837  0.235051  1
  Ti  Ti44  1  0.333326  0.124998  0.077648  1
  Ti  Ti45  1  0.833333  0.124974  0.077669  1
  Ti  Ti46  1  0.333328  0.625018  0.077673  1
  Ti  Ti47  1  0.833326  0.625019  0.077688  1
  Ti  Ti48  1  0.374984  0.375019  0.823887  1
  Ti  Ti49  1  0.874982  0.374972  0.823884  1
  Ti  Ti50  1  0.375028  0.874935  0.823776  1
  Ti  Ti51  1  0.875057  0.874987  0.823838  1
  Ti  Ti52  1  0.125022  0.125023  0.823885  1
  Ti  Ti53  1  0.625022  0.124983  0.823888  1
  Ti  Ti54  1  0.124947  0.625013  0.823839  1
  Ti  Ti55  1  0.624975  0.625059  0.823776  1
  Ti  Ti56  1  0.124980  0.375025  0.910164  1
  Ti  Ti57  1  0.625007  0.375022  0.910154  1
  Ti  Ti58  1  0.125020  0.874970  0.910136  1
  Ti  Ti59  1  0.624993  0.874965  0.910132  1
  Ti  Ti60  1  0.374997  0.124979  0.910155  1
  Ti  Ti61  1  0.875025  0.124974  0.910163  1
  Ti  Ti62  1  0.375011  0.625035  0.910132  1
  Ti  Ti63  1  0.874985  0.625030  0.910136  1
  Ti  Ti64  1  0.385550  0.375708  0.667087  1
  Ti  Ti65  1  0.881590  0.386542  0.646888  1
  Ti  Ti66  1  0.384716  0.889875  0.654832  1
  Ti  Ti67  1  0.897767  0.882950  0.660666  1
  Ti  Ti68  1  0.118410  0.113456  0.646888  1
  Ti  Ti69  1  0.614449  0.124289  0.667087  1
  Ti  Ti70  1  0.102231  0.617047  0.660667  1
  Ti  Ti71  1  0.615283  0.610122  0.654832  1
  Ti  Ti72  1  0.138516  0.364897  0.571060  1
  Ti  Ti73  1  0.629611  0.349017  0.575194  1
  Ti  Ti74  1  0.150281  0.850262  0.574382  1
  Ti  Ti75  1  0.672824  0.906414  0.578963  1
  Ti  Ti76  1  0.370389  0.150982  0.575194  1
  Ti  Ti77  1  0.861484  0.135102  0.571060  1
  Ti  Ti78  1  0.327175  0.593586  0.578963  1
  Ti  Ti79  1  0.849718  0.649737  0.574382  1
  Ti  Ti80  1  0.403591  0.391874  0.482641  1
  Ti  Ti81  1  0.889206  0.381282  0.489033  1
  Ti  Ti82  1  0.346753  0.933464  0.479411  1
  Ti  Ti83  1  0.913409  0.886516  0.490161  1
  Ti  Ti84  1  0.110794  0.118718  0.489033  1
  Ti  Ti85  1  0.596408  0.108126  0.482641  1
  Ti  Ti86  1  0.086591  0.613484  0.490161  1
  Ti  Ti87  1  0.653247  0.566536  0.479411  1
  Ti  Ti88  1  0.125347  0.875020  0.737664  1
  Ti  Ti89  1  0.625099  0.874888  0.737680  1
  Ti  Ti90  1  0.374893  0.625097  0.737680  1
  Ti  Ti91  1  0.874645  0.624965  0.737667  1
  Ti  Ti92  1  0.124800  0.374831  0.737698  1
  Ti  Ti93  1  0.625091  0.374811  0.737699  1
  Ti  Ti94  1  0.374902  0.125172  0.737697  1
  Ti  Ti95  1  0.875193  0.125152  0.737694  1
  Al  Al96  1  0.500000  0.750000  0.520202  1
