# generated using pymatgen
data_Ti96Sn
_symmetry_space_group_name_H-M   'P 1'
_cell_length_a   9.51302000
_cell_length_b   9.35086000
_cell_length_c   18.54723000
_cell_angle_alpha   90.00000000
_cell_angle_beta   90.00000000
_cell_angle_gamma   90.00000000
_symmetry_Int_Tables_number   1
_chemical_formula_structural   Ti96Sn
_chemical_formula_sum   'Ti96 Sn1'
_cell_volume   1649.86732743
_cell_formula_units_Z   1
loop_
 _symmetry_equiv_pos_site_id
 _symmetry_equiv_pos_as_xyz
  1  'x, y, z'
loop_
 _atom_site_type_symbol
 _atom_site_label
 _atom_site_symmetry_multiplicity
 _atom_site_fract_x
 _atom_site_fract_y
 _atom_site_fract_z
 _atom_site_occupancy
  Ti  Ti0  1  0.138459  0.377841  0.409567  1
  Ti  Ti1  1  0.653470  0.365602  0.406846  1
  Ti  Ti2  1  0.166339  0.881746  0.398268  1
  Ti  Ti3  1  0.603669  0.948504  0.419301  1
  Ti  Ti4  1  0.159285  0.376152  0.233415  1
  Ti  Ti5  1  0.658971  0.371860  0.230580  1
  Ti  Ti6  1  0.165395  0.876930  0.235749  1
  Ti  Ti7  1  0.662415  0.882256  0.233730  1
  Ti  Ti8  1  0.166660  0.374967  0.077525  1
  Ti  Ti9  1  0.666700  0.374983  0.077556  1
  Ti  Ti10  1  0.166677  0.874996  0.077521  1
  Ti  Ti11  1  0.666667  0.875062  0.077626  1
  Ti  Ti12  1  0.383255  0.360159  0.323612  1
  Ti  Ti13  1  0.904832  0.360970  0.314724  1
  Ti  Ti14  1  0.416439  0.864821  0.316424  1
  Ti  Ti15  1  0.929600  0.914858  0.316690  1
  Ti  Ti16  1  0.416626  0.375016  0.155113  1
  Ti  Ti17  1  0.916771  0.374857  0.155143  1
  Ti  Ti18  1  0.416659  0.875115  0.155169  1
  Ti  Ti19  1  0.916549  0.874950  0.155119  1
  Ti  Ti20  1  0.416671  0.375007  -0.000074  1
  Ti  Ti21  1  0.916643  0.374982  -0.000059  1
  Ti  Ti22  1  0.416701  0.875021  -0.000044  1
  Ti  Ti23  1  0.916614  0.874999  -0.000045  1
  Ti  Ti24  1  0.116745  0.139842  0.323610  1
  Ti  Ti25  1  0.595168  0.139032  0.314723  1
  Ti  Ti26  1  0.083561  0.635180  0.316423  1
  Ti  Ti27  1  0.570400  0.585144  0.316689  1
  Ti  Ti28  1  0.083378  0.125003  0.155113  1
  Ti  Ti29  1  0.583226  0.125160  0.155141  1
  Ti  Ti30  1  0.083344  0.624902  0.155171  1
  Ti  Ti31  1  0.583447  0.625070  0.155120  1
  Ti  Ti32  1  0.083333  0.125001  -0.000075  1
  Ti  Ti33  1  0.583354  0.125024  -0.000059  1
  Ti  Ti34  1  0.083303  0.624984  -0.000044  1
  Ti  Ti35  1  0.583384  0.625008  -0.000044  1
  Ti  Ti36  1  0.361540  0.122159  0.409567  1
  Ti  Ti37  1  0.846529  0.134399  0.406845  1
  Ti  Ti38  1  0.333660  0.618255  0.398268  1
  Ti  Ti39  1  0.896330  0.551496  0.419301  1
  Ti  Ti40  1  0.340715  0.123852  0.233415  1
  Ti  Ti41  1  0.841028  0.128144  0.230580  1
  Ti  Ti42  1  0.334604  0.623074  0.235750  1
  Ti  Ti43  1  0.837583  0.617749  0.233730  1
  Ti  Ti44  1  0.333340  0.125048  0.077524  1
  Ti  Ti45  1  0.833299  0.125032  0.077556  1
  Ti  Ti46  1  0.333321  0.625021  0.077522  1
  Ti  Ti47  1  0.833334  0.624951  0.077627  1
  Ti  Ti48  1  0.374966  0.375017  0.823864  1
  Ti  Ti49  1  0.874974  0.374968  0.823847  1
  Ti  Ti50  1  0.375052  0.874975  0.823863  1
  Ti  Ti51  1  0.874997  0.874953  0.823765  1
  Ti  Ti52  1  0.125037  0.124972  0.823863  1
  Ti  Ti53  1  0.625029  0.125022  0.823846  1
  Ti  Ti54  1  0.124951  0.625011  0.823863  1
  Ti  Ti55  1  0.625008  0.625038  0.823766  1
  Ti  Ti56  1  0.124952  0.375009  0.910134  1
  Ti  Ti57  1  0.625042  0.375050  0.910130  1
  Ti  Ti58  1  0.124952  0.874964  0.910139  1
  Ti  Ti59  1  0.625064  0.874958  0.910144  1
  Ti  Ti60  1  0.375051  0.124982  0.910134  1
  Ti  Ti61  1  0.874961  0.124939  0.910130  1
  Ti  Ti62  1  0.375052  0.625025  0.910140  1
  Ti  Ti63  1  0.874938  0.625032  0.910144  1
  Ti  Ti64  1  0.393940  0.362537  0.648969  1
  Ti  Ti65  1  0.889154  0.361616  0.660869  1
  Ti  Ti66  1  0.382511  0.867522  0.664655  1
  Ti  Ti67  1  0.885169  0.866343  0.661870  1
  Ti  Ti68  1  0.106059  0.137460  0.648969  1
  Ti  Ti69  1  0.610845  0.138380  0.660869  1
  Ti  Ti70  1  0.117487  0.632472  0.664655  1
  Ti  Ti71  1  0.614829  0.633652  0.661870  1
  Ti  Ti72  1  0.147531  0.388877  0.572395  1
  Ti  Ti73  1  0.652000  0.400456  0.577918  1
  Ti  Ti74  1  0.139876  0.881770  0.581397  1
  Ti  Ti75  1  0.628923  0.887984  0.580104  1
  Ti  Ti76  1  0.352469  0.111122  0.572395  1
  Ti  Ti77  1  0.847999  0.099543  0.577918  1
  Ti  Ti78  1  0.360124  0.618228  0.581397  1
  Ti  Ti79  1  0.871076  0.612014  0.580104  1
  Ti  Ti80  1  0.391402  0.379776  0.489582  1
  Ti  Ti81  1  0.904734  0.337450  0.503101  1
  Ti  Ti82  1  0.384915  0.852074  0.495185  1
  Ti  Ti83  1  0.911466  0.879975  0.484717  1
  Ti  Ti84  1  0.108598  0.120224  0.489582  1
  Ti  Ti85  1  0.595265  0.162549  0.503101  1
  Ti  Ti86  1  0.115085  0.647926  0.495185  1
  Ti  Ti87  1  0.588534  0.620024  0.484717  1
  Ti  Ti88  1  0.125192  0.874975  0.737611  1
  Ti  Ti89  1  0.625068  0.874993  0.737547  1
  Ti  Ti90  1  0.374802  0.625006  0.737613  1
  Ti  Ti91  1  0.874928  0.624992  0.737548  1
  Ti  Ti92  1  0.124969  0.374887  0.737632  1
  Ti  Ti93  1  0.624918  0.375050  0.737602  1
  Ti  Ti94  1  0.375025  0.125095  0.737630  1
  Ti  Ti95  1  0.875077  0.124932  0.737602  1
  Sn  Sn96  1  0.750000  0.750000  0.388804  1
