# generated using pymatgen
data_Ti96Mo
_symmetry_space_group_name_H-M   'P 1'
_cell_length_a   9.51302000
_cell_length_b   9.35086000
_cell_length_c   18.54723000
_cell_angle_alpha   90.00000000
_cell_angle_beta   90.00000000
_cell_angle_gamma   90.00000000
_symmetry_Int_Tables_number   1
_chemical_formula_structural   Ti96Mo
_chemical_formula_sum   'Ti96 Mo1'
_cell_volume   1649.86732743
_cell_formula_units_Z   1
loop_
 _symmetry_equiv_pos_site_id
 _symmetry_equiv_pos_as_xyz
  1  'x, y, z'
loop_
 _atom_site_type_symbol
 _atom_site_label
 _atom_site_symmetry_multiplicity
 _atom_site_fract_x
 _atom_site_fract_y
 _atom_site_fract_z
 _atom_site_occupancy
  Ti  Ti0  1  0.135435  0.362537  0.405970  1
  Ti  Ti1  1  0.647501  0.347416  0.406595  1
  Ti  Ti2  1  0.162727  0.853272  0.399156  1
  Ti  Ti3  1  0.677483  0.914691  0.401064  1
  Ti  Ti4  1  0.158706  0.377948  0.236885  1
  Ti  Ti5  1  0.665656  0.369180  0.229288  1
  Ti  Ti6  1  0.159714  0.872337  0.234183  1
  Ti  Ti7  1  0.654479  0.861676  0.244959  1
  Ti  Ti8  1  0.166678  0.374999  0.077637  1
  Ti  Ti9  1  0.666669  0.375001  0.077649  1
  Ti  Ti10  1  0.166689  0.875001  0.077657  1
  Ti  Ti11  1  0.666678  0.875008  0.077661  1
  Ti  Ti12  1  0.403803  0.368743  0.311911  1
  Ti  Ti13  1  0.896404  0.376684  0.318948  1
  Ti  Ti14  1  0.400134  0.909864  0.318455  1
  Ti  Ti15  1  0.917262  0.881594  0.317924  1
  Ti  Ti16  1  0.416668  0.374961  0.155300  1
  Ti  Ti17  1  0.916630  0.374981  0.155304  1
  Ti  Ti18  1  0.416649  0.875027  0.155347  1
  Ti  Ti19  1  0.916735  0.874979  0.155302  1
  Ti  Ti20  1  0.416668  0.375000  -0.000014  1
  Ti  Ti21  1  0.916659  0.375001  -0.000017  1
  Ti  Ti22  1  0.416667  0.874996  0.000001  1
  Ti  Ti23  1  0.916674  0.874994  -0.000013  1
  Ti  Ti24  1  0.103596  0.123316  0.318947  1
  Ti  Ti25  1  0.596197  0.131257  0.311910  1
  Ti  Ti26  1  0.082738  0.618406  0.317923  1
  Ti  Ti27  1  0.599866  0.590137  0.318454  1
  Ti  Ti28  1  0.083369  0.125022  0.155304  1
  Ti  Ti29  1  0.583332  0.125043  0.155300  1
  Ti  Ti30  1  0.083265  0.625025  0.155302  1
  Ti  Ti31  1  0.583351  0.624975  0.155347  1
  Ti  Ti32  1  0.083341  0.125000  -0.000017  1
  Ti  Ti33  1  0.583333  0.125002  -0.000014  1
  Ti  Ti34  1  0.083326  0.625008  -0.000013  1
  Ti  Ti35  1  0.583333  0.625004  0.000001  1
  Ti  Ti36  1  0.352498  0.152584  0.406595  1
  Ti  Ti37  1  0.864564  0.137463  0.405970  1
  Ti  Ti38  1  0.322516  0.585309  0.401064  1
  Ti  Ti39  1  0.837272  0.646728  0.399156  1
  Ti  Ti40  1  0.334343  0.130821  0.229288  1
  Ti  Ti41  1  0.841293  0.122053  0.236885  1
  Ti  Ti42  1  0.345520  0.638324  0.244959  1
  Ti  Ti43  1  0.840285  0.627664  0.234183  1
  Ti  Ti44  1  0.333330  0.125002  0.077649  1
  Ti  Ti45  1  0.833321  0.125004  0.077637  1
  Ti  Ti46  1  0.333321  0.624995  0.077661  1
  Ti  Ti47  1  0.833310  0.625002  0.077657  1
  Ti  Ti48  1  0.375003  0.375018  0.823796  1
  Ti  Ti49  1  0.874996  0.374984  0.823788  1
  Ti  Ti50  1  0.374995  0.874997  0.823778  1
  Ti  Ti51  1  0.875014  0.874976  0.823772  1
  Ti  Ti52  1  0.125004  0.125014  0.823788  1
  Ti  Ti53  1  0.624999  0.124980  0.823796  1
  Ti  Ti54  1  0.124987  0.625024  0.823772  1
  Ti  Ti55  1  0.625006  0.625001  0.823778  1
  Ti  Ti56  1  0.124994  0.375013  0.910091  1
  Ti  Ti57  1  0.625002  0.375005  0.910098  1
  Ti  Ti58  1  0.125001  0.874990  0.910087  1
  Ti  Ti59  1  0.624995  0.874986  0.910091  1
  Ti  Ti60  1  0.374998  0.124994  0.910098  1
  Ti  Ti61  1  0.875007  0.124986  0.910091  1
  Ti  Ti62  1  0.375005  0.625013  0.910091  1
  Ti  Ti63  1  0.875000  0.625008  0.910087  1
  Ti  Ti64  1  0.390662  0.393847  0.655354  1
  Ti  Ti65  1  0.899931  0.378254  0.649521  1
  Ti  Ti66  1  0.393376  0.882484  0.651036  1
  Ti  Ti67  1  0.883664  0.886111  0.661838  1
  Ti  Ti68  1  0.100068  0.121746  0.649521  1
  Ti  Ti69  1  0.609338  0.106152  0.655354  1
  Ti  Ti70  1  0.116336  0.613888  0.661838  1
  Ti  Ti71  1  0.606624  0.617515  0.651036  1
  Ti  Ti72  1  0.148617  0.375050  0.565987  1
  Ti  Ti73  1  0.649097  0.351155  0.582657  1
  Ti  Ti74  1  0.133376  0.857893  0.581786  1
  Ti  Ti75  1  0.652394  0.857282  0.565369  1
  Ti  Ti76  1  0.350903  0.148845  0.582657  1
  Ti  Ti77  1  0.851383  0.124949  0.565987  1
  Ti  Ti78  1  0.347606  0.642717  0.565369  1
  Ti  Ti79  1  0.866624  0.642106  0.581786  1
  Ti  Ti80  1  0.406890  0.382436  0.495712  1
  Ti  Ti81  1  0.891287  0.383336  0.490242  1
  Ti  Ti82  1  0.366161  0.919159  0.497018  1
  Ti  Ti83  1  0.915464  0.879528  0.485147  1
  Ti  Ti84  1  0.108713  0.116664  0.490242  1
  Ti  Ti85  1  0.593110  0.117564  0.495712  1
  Ti  Ti86  1  0.084535  0.620472  0.485147  1
  Ti  Ti87  1  0.633839  0.580840  0.497018  1
  Ti  Ti88  1  0.124977  0.875002  0.737467  1
  Ti  Ti89  1  0.624984  0.874903  0.737471  1
  Ti  Ti90  1  0.375014  0.625093  0.737470  1
  Ti  Ti91  1  0.875021  0.624994  0.737466  1
  Ti  Ti92  1  0.124931  0.375010  0.737484  1
  Ti  Ti93  1  0.625011  0.374924  0.737500  1
  Ti  Ti94  1  0.374986  0.125070  0.737499  1
  Ti  Ti95  1  0.875067  0.124985  0.737483  1
  Mo  Mo96  1  0.500000  0.750000  0.427164  1
