# generated using pymatgen
data_Ti
_symmetry_space_group_name_H-M   'P 1'
_cell_length_a   9.51302000
_cell_length_b   9.35086000
_cell_length_c   18.54723000
_cell_angle_alpha   90.00000000
_cell_angle_beta   90.00000000
_cell_angle_gamma   90.00000000
_symmetry_Int_Tables_number   1
_chemical_formula_structural   Ti
_chemical_formula_sum   Ti97
_cell_volume   1649.86732743
_cell_formula_units_Z   97
loop_
 _symmetry_equiv_pos_site_id
 _symmetry_equiv_pos_as_xyz
  1  'x, y, z'
loop_
 _atom_site_type_symbol
 _atom_site_label
 _atom_site_symmetry_multiplicity
 _atom_site_fract_x
 _atom_site_fract_y
 _atom_site_fract_z
 _atom_site_occupancy
  Ti  Ti0  1  0.146245  0.376747  0.400514  1
  Ti  Ti1  1  0.651449  0.372747  0.397366  1
  Ti  Ti2  1  0.163368  0.885880  0.395844  1
  Ti  Ti3  1  0.647915  0.906697  0.403495  1
  Ti  Ti4  1  0.163236  0.377057  0.236479  1
  Ti  Ti5  1  0.660615  0.379115  0.235198  1
  Ti  Ti6  1  0.157850  0.875291  0.235727  1
  Ti  Ti7  1  0.660810  0.875440  0.233993  1
  Ti  Ti8  1  0.166660  0.374992  0.077669  1
  Ti  Ti9  1  0.666667  0.374985  0.077670  1
  Ti  Ti10  1  0.166674  0.875016  0.077682  1
  Ti  Ti11  1  0.666670  0.875017  0.077692  1
  Ti  Ti12  1  0.409512  0.374121  0.317216  1
  Ti  Ti13  1  0.909090  0.371308  0.312571  1
  Ti  Ti14  1  0.410698  0.873027  0.316767  1
  Ti  Ti15  1  0.900070  0.865291  0.323398  1
  Ti  Ti16  1  0.416669  0.374981  0.155327  1
  Ti  Ti17  1  0.916648  0.374977  0.155337  1
  Ti  Ti18  1  0.416707  0.875054  0.155357  1
  Ti  Ti19  1  0.916672  0.875035  0.155364  1
  Ti  Ti20  1  0.416679  0.375010  -0.000007  1
  Ti  Ti21  1  0.916654  0.375008  -0.000004  1
  Ti  Ti22  1  0.416685  0.875003  0.000005  1
  Ti  Ti23  1  0.916654  0.875003  0.000004  1
  Ti  Ti24  1  0.090488  0.125879  0.317215  1
  Ti  Ti25  1  0.590910  0.128692  0.312570  1
  Ti  Ti26  1  0.089302  0.626973  0.316766  1
  Ti  Ti27  1  0.599930  0.634710  0.323397  1
  Ti  Ti28  1  0.083331  0.125023  0.155327  1
  Ti  Ti29  1  0.583351  0.125027  0.155336  1
  Ti  Ti30  1  0.083294  0.624949  0.155357  1
  Ti  Ti31  1  0.583328  0.624967  0.155364  1
  Ti  Ti32  1  0.083322  0.124996  -0.000008  1
  Ti  Ti33  1  0.583345  0.124997  -0.000004  1
  Ti  Ti34  1  0.083315  0.625000  0.000005  1
  Ti  Ti35  1  0.583347  0.625001  0.000004  1
  Ti  Ti36  1  0.353754  0.123253  0.400514  1
  Ti  Ti37  1  0.848550  0.127253  0.397366  1
  Ti  Ti38  1  0.336631  0.614120  0.395844  1
  Ti  Ti39  1  0.852084  0.593303  0.403495  1
  Ti  Ti40  1  0.336763  0.122943  0.236479  1
  Ti  Ti41  1  0.839384  0.120886  0.235198  1
  Ti  Ti42  1  0.342149  0.624709  0.235727  1
  Ti  Ti43  1  0.839189  0.624561  0.233994  1
  Ti  Ti44  1  0.333339  0.125013  0.077669  1
  Ti  Ti45  1  0.833332  0.125020  0.077669  1
  Ti  Ti46  1  0.333325  0.624988  0.077682  1
  Ti  Ti47  1  0.833329  0.624986  0.077692  1
  Ti  Ti48  1  0.374989  0.375017  0.823831  1
  Ti  Ti49  1  0.874998  0.375002  0.823813  1
  Ti  Ti50  1  0.375013  0.875009  0.823864  1
  Ti  Ti51  1  0.874944  0.874967  0.823785  1
  Ti  Ti52  1  0.125013  0.124982  0.823830  1
  Ti  Ti53  1  0.625005  0.124998  0.823813  1
  Ti  Ti54  1  0.124988  0.624988  0.823863  1
  Ti  Ti55  1  0.625059  0.625031  0.823785  1
  Ti  Ti56  1  0.124985  0.374993  0.910129  1
  Ti  Ti57  1  0.625029  0.375020  0.910112  1
  Ti  Ti58  1  0.124984  0.875000  0.910142  1
  Ti  Ti59  1  0.625031  0.874985  0.910128  1
  Ti  Ti60  1  0.375017  0.125008  0.910128  1
  Ti  Ti61  1  0.874973  0.124981  0.910111  1
  Ti  Ti62  1  0.375018  0.624998  0.910142  1
  Ti  Ti63  1  0.874971  0.625014  0.910127  1
  Ti  Ti64  1  0.394665  0.372034  0.646178  1
  Ti  Ti65  1  0.886515  0.351966  0.658480  1
  Ti  Ti66  1  0.375710  0.867235  0.668233  1
  Ti  Ti67  1  0.890422  0.869253  0.655253  1
  Ti  Ti68  1  0.105334  0.127965  0.646178  1
  Ti  Ti69  1  0.613484  0.148032  0.658480  1
  Ti  Ti70  1  0.124289  0.632763  0.668233  1
  Ti  Ti71  1  0.609578  0.630746  0.655253  1
  Ti  Ti72  1  0.144061  0.387570  0.573393  1
  Ti  Ti73  1  0.656793  0.394953  0.570744  1
  Ti  Ti74  1  0.147713  0.874793  0.573431  1
  Ti  Ti75  1  0.594809  0.916361  0.579544  1
  Ti  Ti76  1  0.355938  0.112429  0.573393  1
  Ti  Ti77  1  0.843207  0.105047  0.570744  1
  Ti  Ti78  1  0.352287  0.625207  0.573431  1
  Ti  Ti79  1  0.905191  0.583639  0.579544  1
  Ti  Ti80  1  0.388309  0.366648  0.488870  1
  Ti  Ti81  1  0.900256  0.348661  0.489229  1
  Ti  Ti82  1  0.394046  0.857569  0.480408  1
  Ti  Ti83  1  0.928958  0.895926  0.477835  1
  Ti  Ti84  1  0.111690  0.133352  0.488870  1
  Ti  Ti85  1  0.599744  0.151339  0.489229  1
  Ti  Ti86  1  0.105954  0.642431  0.480408  1
  Ti  Ti87  1  0.571042  0.604074  0.477835  1
  Ti  Ti88  1  0.125089  0.875085  0.737603  1
  Ti  Ti89  1  0.625074  0.875123  0.737584  1
  Ti  Ti90  1  0.374906  0.624905  0.737605  1
  Ti  Ti91  1  0.874922  0.624867  0.737586  1
  Ti  Ti92  1  0.125069  0.374911  0.737559  1
  Ti  Ti93  1  0.624983  0.375337  0.737549  1
  Ti  Ti94  1  0.374928  0.125083  0.737558  1
  Ti  Ti95  1  0.875014  0.124655  0.737553  1
  Ti  Ti96  1  0.750000  0.750000  0.527773  1
