# generated using pymatgen
data_Ti96Mo
_symmetry_space_group_name_H-M   'P 1'
_cell_length_a   9.51302000
_cell_length_b   9.35086000
_cell_length_c   18.54723000
_cell_angle_alpha   90.00000000
_cell_angle_beta   90.00000000
_cell_angle_gamma   90.00000000
_symmetry_Int_Tables_number   1
_chemical_formula_structural   Ti96Mo
_chemical_formula_sum   'Ti96 Mo1'
_cell_volume   1649.86732743
_cell_formula_units_Z   1
loop_
 _symmetry_equiv_pos_site_id
 _symmetry_equiv_pos_as_xyz
  1  'x, y, z'
loop_
 _atom_site_type_symbol
 _atom_site_label
 _atom_site_symmetry_multiplicity
 _atom_site_fract_x
 _atom_site_fract_y
 _atom_site_fract_z
 _atom_site_occupancy
  Ti  Ti0  1  0.150104  0.378635  0.408088  1
  Ti  Ti1  1  0.656031  0.341664  0.416397  1
  Ti  Ti2  1  0.132381  0.861367  0.403124  1
  Ti  Ti3  1  0.681102  0.874236  0.398890  1
  Ti  Ti4  1  0.151044  0.365039  0.237434  1
  Ti  Ti5  1  0.660124  0.369271  0.232860  1
  Ti  Ti6  1  0.167467  0.866988  0.237349  1
  Ti  Ti7  1  0.667754  0.894135  0.239091  1
  Ti  Ti8  1  0.166589  0.375088  0.077336  1
  Ti  Ti9  1  0.666744  0.375028  0.077283  1
  Ti  Ti10  1  0.166684  0.874993  0.077495  1
  Ti  Ti11  1  0.666565  0.874940  0.077577  1
  Ti  Ti12  1  0.398824  0.367797  0.322344  1
  Ti  Ti13  1  0.895925  0.371792  0.324903  1
  Ti  Ti14  1  0.382552  0.935129  0.332919  1
  Ti  Ti15  1  0.918019  0.883868  0.313014  1
  Ti  Ti16  1  0.416715  0.375003  0.154790  1
  Ti  Ti17  1  0.916766  0.374834  0.154751  1
  Ti  Ti18  1  0.416654  0.874898  0.155482  1
  Ti  Ti19  1  0.916864  0.875128  0.154796  1
  Ti  Ti20  1  0.416652  0.375068  -0.000170  1
  Ti  Ti21  1  0.916632  0.375010  -0.000245  1
  Ti  Ti22  1  0.416670  0.874940  0.000024  1
  Ti  Ti23  1  0.916640  0.874975  -0.000187  1
  Ti  Ti24  1  0.104075  0.128210  0.324901  1
  Ti  Ti25  1  0.601176  0.132205  0.322343  1
  Ti  Ti26  1  0.081980  0.616135  0.313013  1
  Ti  Ti27  1  0.617449  0.564872  0.332918  1
  Ti  Ti28  1  0.083234  0.125205  0.154748  1
  Ti  Ti29  1  0.583285  0.125037  0.154789  1
  Ti  Ti30  1  0.083134  0.624908  0.154797  1
  Ti  Ti31  1  0.583348  0.625108  0.155480  1
  Ti  Ti32  1  0.083370  0.125001  -0.000246  1
  Ti  Ti33  1  0.583349  0.124950  -0.000168  1
  Ti  Ti34  1  0.083360  0.625034  -0.000187  1
  Ti  Ti35  1  0.583332  0.625054  0.000022  1
  Ti  Ti36  1  0.343968  0.158336  0.416397  1
  Ti  Ti37  1  0.849895  0.121366  0.408088  1
  Ti  Ti38  1  0.318897  0.625765  0.398890  1
  Ti  Ti39  1  0.867618  0.638634  0.403124  1
  Ti  Ti40  1  0.339876  0.130735  0.232859  1
  Ti  Ti41  1  0.848955  0.134969  0.237434  1
  Ti  Ti42  1  0.332244  0.605872  0.239091  1
  Ti  Ti43  1  0.832532  0.633020  0.237350  1
  Ti  Ti44  1  0.333257  0.125001  0.077284  1
  Ti  Ti45  1  0.833410  0.124940  0.077336  1
  Ti  Ti46  1  0.333433  0.625079  0.077576  1
  Ti  Ti47  1  0.833315  0.625029  0.077494  1
  Ti  Ti48  1  0.375078  0.375151  0.823786  1
  Ti  Ti49  1  0.874882  0.375008  0.823847  1
  Ti  Ti50  1  0.375123  0.874903  0.823668  1
  Ti  Ti51  1  0.874887  0.874978  0.823765  1
  Ti  Ti52  1  0.125117  0.124967  0.823847  1
  Ti  Ti53  1  0.624928  0.124840  0.823788  1
  Ti  Ti54  1  0.125116  0.625003  0.823765  1
  Ti  Ti55  1  0.624881  0.625083  0.823667  1
  Ti  Ti56  1  0.125094  0.375125  0.910095  1
  Ti  Ti57  1  0.624954  0.375157  0.910153  1
  Ti  Ti58  1  0.125171  0.874913  0.910156  1
  Ti  Ti59  1  0.624913  0.874869  0.910263  1
  Ti  Ti60  1  0.375054  0.124827  0.910156  1
  Ti  Ti61  1  0.874914  0.124866  0.910096  1
  Ti  Ti62  1  0.375091  0.625098  0.910262  1
  Ti  Ti63  1  0.874833  0.625063  0.910156  1
  Ti  Ti64  1  0.395921  0.384467  0.656754  1
  Ti  Ti65  1  0.895721  0.373494  0.650439  1
  Ti  Ti66  1  0.397053  0.888315  0.647421  1
  Ti  Ti67  1  0.889149  0.883998  0.662125  1
  Ti  Ti68  1  0.104277  0.126501  0.650439  1
  Ti  Ti69  1  0.604077  0.115527  0.656754  1
  Ti  Ti70  1  0.110848  0.615995  0.662125  1
  Ti  Ti71  1  0.602947  0.611680  0.647422  1
  Ti  Ti72  1  0.154215  0.373536  0.569948  1
  Ti  Ti73  1  0.644481  0.349191  0.573032  1
  Ti  Ti74  1  0.135976  0.865545  0.582633  1
  Ti  Ti75  1  0.657120  0.866193  0.575376  1
  Ti  Ti76  1  0.355518  0.150807  0.573032  1
  Ti  Ti77  1  0.845785  0.126462  0.569947  1
  Ti  Ti78  1  0.342879  0.633806  0.575376  1
  Ti  Ti79  1  0.864023  0.634453  0.582633  1
  Ti  Ti80  1  0.411258  0.406032  0.488069  1
  Ti  Ti81  1  0.906861  0.375585  0.489712  1
  Ti  Ti82  1  0.355044  0.902089  0.492890  1
  Ti  Ti83  1  0.907064  0.877737  0.493060  1
  Ti  Ti84  1  0.093139  0.124415  0.489712  1
  Ti  Ti85  1  0.588742  0.093967  0.488069  1
  Ti  Ti86  1  0.092936  0.622263  0.493060  1
  Ti  Ti87  1  0.644956  0.597910  0.492890  1
  Ti  Ti88  1  0.125095  0.875169  0.737705  1
  Ti  Ti89  1  0.624915  0.874998  0.737492  1
  Ti  Ti90  1  0.375082  0.624984  0.737489  1
  Ti  Ti91  1  0.874895  0.624799  0.737709  1
  Ti  Ti92  1  0.124941  0.374964  0.737715  1
  Ti  Ti93  1  0.624958  0.374946  0.737676  1
  Ti  Ti94  1  0.375032  0.125027  0.737676  1
  Ti  Ti95  1  0.875049  0.125008  0.737715  1
  Mo  Mo96  1  0.500000  0.750000  0.375015  1
