# generated using pymatgen
data_Ti96Sn
_symmetry_space_group_name_H-M   'P 1'
_cell_length_a   9.51302000
_cell_length_b   9.35086000
_cell_length_c   18.54723000
_cell_angle_alpha   90.00000000
_cell_angle_beta   90.00000000
_cell_angle_gamma   90.00000000
_symmetry_Int_Tables_number   1
_chemical_formula_structural   Ti96Sn
_chemical_formula_sum   'Ti96 Sn1'
_cell_volume   1649.86732743
_cell_formula_units_Z   1
loop_
 _symmetry_equiv_pos_site_id
 _symmetry_equiv_pos_as_xyz
  1  'x, y, z'
loop_
 _atom_site_type_symbol
 _atom_site_label
 _atom_site_symmetry_multiplicity
 _atom_site_fract_x
 _atom_site_fract_y
 _atom_site_fract_z
 _atom_site_occupancy
  Ti  Ti0  1  0.148526  0.375430  0.402626  1
  Ti  Ti1  1  0.643562  0.335482  0.406842  1
  Ti  Ti2  1  0.116710  0.855511  0.393579  1
  Ti  Ti3  1  0.688910  0.872543  0.388638  1
  Ti  Ti4  1  0.161956  0.369255  0.234776  1
  Ti  Ti5  1  0.658905  0.375934  0.234600  1
  Ti  Ti6  1  0.168223  0.874864  0.234989  1
  Ti  Ti7  1  0.652448  0.870440  0.236105  1
  Ti  Ti8  1  0.166666  0.375000  0.077689  1
  Ti  Ti9  1  0.666666  0.375000  0.077689  1
  Ti  Ti10  1  0.166666  0.875000  0.077689  1
  Ti  Ti11  1  0.666666  0.875000  0.077689  1
  Ti  Ti12  1  0.405879  0.382293  0.314110  1
  Ti  Ti13  1  0.896086  0.374938  0.321282  1
  Ti  Ti14  1  0.398854  0.896524  0.334620  1
  Ti  Ti15  1  0.914862  0.887453  0.303796  1
  Ti  Ti16  1  0.416667  0.375000  0.155379  1
  Ti  Ti17  1  0.916667  0.375000  0.155379  1
  Ti  Ti18  1  0.416667  0.875000  0.155379  1
  Ti  Ti19  1  0.916667  0.875000  0.155379  1
  Ti  Ti20  1  0.416667  0.375000  -0.000000  1
  Ti  Ti21  1  0.916667  0.375000  -0.000000  1
  Ti  Ti22  1  0.416667  0.875000  -0.000000  1
  Ti  Ti23  1  0.916667  0.875000  -0.000000  1
  Ti  Ti24  1  0.103914  0.125062  0.321281  1
  Ti  Ti25  1  0.594121  0.117707  0.314109  1
  Ti  Ti26  1  0.085138  0.612547  0.303795  1
  Ti  Ti27  1  0.601146  0.603476  0.334619  1
  Ti  Ti28  1  0.083333  0.125000  0.155379  1
  Ti  Ti29  1  0.583333  0.125000  0.155379  1
  Ti  Ti30  1  0.083333  0.625000  0.155379  1
  Ti  Ti31  1  0.583333  0.625000  0.155379  1
  Ti  Ti32  1  0.083333  0.125000  -0.000000  1
  Ti  Ti33  1  0.583333  0.125000  -0.000000  1
  Ti  Ti34  1  0.083333  0.625000  -0.000000  1
  Ti  Ti35  1  0.583333  0.625000  -0.000000  1
  Ti  Ti36  1  0.356437  0.164518  0.406842  1
  Ti  Ti37  1  0.851473  0.124570  0.402626  1
  Ti  Ti38  1  0.311089  0.627457  0.388638  1
  Ti  Ti39  1  0.883289  0.644489  0.393579  1
  Ti  Ti40  1  0.341094  0.124066  0.234600  1
  Ti  Ti41  1  0.838043  0.130745  0.234776  1
  Ti  Ti42  1  0.347551  0.629560  0.236105  1
  Ti  Ti43  1  0.831776  0.625136  0.234989  1
  Ti  Ti44  1  0.333333  0.125000  0.077689  1
  Ti  Ti45  1  0.833333  0.125000  0.077689  1
  Ti  Ti46  1  0.333333  0.625000  0.077689  1
  Ti  Ti47  1  0.833333  0.625000  0.077689  1
  Ti  Ti48  1  0.375000  0.375000  0.823738  1
  Ti  Ti49  1  0.875000  0.375000  0.823738  1
  Ti  Ti50  1  0.375000  0.875000  0.823738  1
  Ti  Ti51  1  0.875000  0.875000  0.823738  1
  Ti  Ti52  1  0.125000  0.125000  0.823738  1
  Ti  Ti53  1  0.625000  0.125000  0.823738  1
  Ti  Ti54  1  0.125000  0.625000  0.823738  1
  Ti  Ti55  1  0.625000  0.625000  0.823738  1
  Ti  Ti56  1  0.125000  0.375000  0.910084  1
  Ti  Ti57  1  0.625000  0.375000  0.910084  1
  Ti  Ti58  1  0.125000  0.875000  0.910084  1
  Ti  Ti59  1  0.625000  0.875000  0.910084  1
  Ti  Ti60  1  0.375000  0.125000  0.910084  1
  Ti  Ti61  1  0.875000  0.125000  0.910084  1
  Ti  Ti62  1  0.375000  0.625000  0.910084  1
  Ti  Ti63  1  0.875000  0.625000  0.910084  1
  Ti  Ti64  1  0.394862  0.384728  0.661340  1
  Ti  Ti65  1  0.888816  0.375956  0.644707  1
  Ti  Ti66  1  0.387563  0.895263  0.642354  1
  Ti  Ti67  1  0.881725  0.885149  0.673222  1
  Ti  Ti68  1  0.111184  0.124044  0.644707  1
  Ti  Ti69  1  0.605138  0.115272  0.661340  1
  Ti  Ti70  1  0.118275  0.614851  0.673222  1
  Ti  Ti71  1  0.612437  0.604737  0.642354  1
  Ti  Ti72  1  0.155170  0.380152  0.573765  1
  Ti  Ti73  1  0.634106  0.334010  0.567764  1
  Ti  Ti74  1  0.114489  0.853361  0.586545  1
  Ti  Ti75  1  0.663543  0.867487  0.582051  1
  Ti  Ti76  1  0.365894  0.165990  0.567764  1
  Ti  Ti77  1  0.844830  0.119848  0.573765  1
  Ti  Ti78  1  0.336457  0.632513  0.582051  1
  Ti  Ti79  1  0.885511  0.646639  0.586545  1
  Ti  Ti80  1  0.412512  0.426978  0.483550  1
  Ti  Ti81  1  0.903230  0.365592  0.488167  1
  Ti  Ti82  1  0.296314  0.934946  0.490629  1
  Ti  Ti83  1  0.904963  0.894813  0.490422  1
  Ti  Ti84  1  0.096770  0.134408  0.488167  1
  Ti  Ti85  1  0.587488  0.073022  0.483550  1
  Ti  Ti86  1  0.095037  0.605187  0.490422  1
  Ti  Ti87  1  0.703686  0.565054  0.490629  1
  Ti  Ti88  1  0.125000  0.875000  0.737395  1
  Ti  Ti89  1  0.625000  0.875000  0.737395  1
  Ti  Ti90  1  0.375000  0.625000  0.737395  1
  Ti  Ti91  1  0.875000  0.625000  0.737395  1
  Ti  Ti92  1  0.125000  0.375000  0.737395  1
  Ti  Ti93  1  0.625000  0.375000  0.737395  1
  Ti  Ti94  1  0.375000  0.125000  0.737395  1
  Ti  Ti95  1  0.875000  0.125000  0.737395  1
  Sn  Sn96  1  0.500000  0.750000  0.475317  1
