# generated using pymatgen
data_Ti
_symmetry_space_group_name_H-M   'P 1'
_cell_length_a   9.51302000
_cell_length_b   9.35086000
_cell_length_c   18.54723000
_cell_angle_alpha   90.00000000
_cell_angle_beta   90.00000000
_cell_angle_gamma   90.00000000
_symmetry_Int_Tables_number   1
_chemical_formula_structural   Ti
_chemical_formula_sum   Ti97
_cell_volume   1649.86732743
_cell_formula_units_Z   97
loop_
 _symmetry_equiv_pos_site_id
 _symmetry_equiv_pos_as_xyz
  1  'x, y, z'
loop_
 _atom_site_type_symbol
 _atom_site_label
 _atom_site_symmetry_multiplicity
 _atom_site_fract_x
 _atom_site_fract_y
 _atom_site_fract_z
 _atom_site_occupancy
  Ti  Ti0  1  0.149681  0.375009  0.407097  1
  Ti  Ti1  1  0.641426  0.336942  0.406105  1
  Ti  Ti2  1  0.133473  0.854750  0.391259  1
  Ti  Ti3  1  0.667193  0.872930  0.391226  1
  Ti  Ti4  1  0.160821  0.371173  0.233959  1
  Ti  Ti5  1  0.660994  0.376198  0.234531  1
  Ti  Ti6  1  0.163041  0.873817  0.235913  1
  Ti  Ti7  1  0.653776  0.869423  0.236893  1
  Ti  Ti8  1  0.166666  0.375000  0.077689  1
  Ti  Ti9  1  0.666666  0.375000  0.077689  1
  Ti  Ti10  1  0.166666  0.875000  0.077689  1
  Ti  Ti11  1  0.666666  0.875000  0.077689  1
  Ti  Ti12  1  0.404992  0.379277  0.313196  1
  Ti  Ti13  1  0.896640  0.371857  0.321874  1
  Ti  Ti14  1  0.404526  0.894742  0.330104  1
  Ti  Ti15  1  0.912221  0.886708  0.309190  1
  Ti  Ti16  1  0.416667  0.375000  0.155379  1
  Ti  Ti17  1  0.916667  0.375000  0.155379  1
  Ti  Ti18  1  0.416667  0.875000  0.155379  1
  Ti  Ti19  1  0.916667  0.875000  0.155379  1
  Ti  Ti20  1  0.416667  0.375000  0.000000  1
  Ti  Ti21  1  0.916667  0.375000  0.000000  1
  Ti  Ti22  1  0.416667  0.875000  0.000000  1
  Ti  Ti23  1  0.916667  0.875000  0.000000  1
  Ti  Ti24  1  0.103360  0.128143  0.321873  1
  Ti  Ti25  1  0.595008  0.120723  0.313195  1
  Ti  Ti26  1  0.087779  0.613292  0.309189  1
  Ti  Ti27  1  0.595474  0.605258  0.330103  1
  Ti  Ti28  1  0.083333  0.125000  0.155379  1
  Ti  Ti29  1  0.583333  0.125000  0.155379  1
  Ti  Ti30  1  0.083333  0.625000  0.155379  1
  Ti  Ti31  1  0.583333  0.625000  0.155379  1
  Ti  Ti32  1  0.083333  0.125000  0.000000  1
  Ti  Ti33  1  0.583333  0.125000  0.000000  1
  Ti  Ti34  1  0.083333  0.625000  0.000000  1
  Ti  Ti35  1  0.583333  0.625000  0.000000  1
  Ti  Ti36  1  0.358573  0.163058  0.406105  1
  Ti  Ti37  1  0.850318  0.124991  0.407097  1
  Ti  Ti38  1  0.332806  0.627070  0.391226  1
  Ti  Ti39  1  0.866526  0.645250  0.391259  1
  Ti  Ti40  1  0.339005  0.123802  0.234531  1
  Ti  Ti41  1  0.839178  0.128827  0.233959  1
  Ti  Ti42  1  0.346223  0.630577  0.236893  1
  Ti  Ti43  1  0.836958  0.626183  0.235913  1
  Ti  Ti44  1  0.333333  0.125000  0.077689  1
  Ti  Ti45  1  0.833333  0.125000  0.077689  1
  Ti  Ti46  1  0.333333  0.625000  0.077689  1
  Ti  Ti47  1  0.833333  0.625000  0.077689  1
  Ti  Ti48  1  0.375000  0.375000  0.823738  1
  Ti  Ti49  1  0.875000  0.375000  0.823738  1
  Ti  Ti50  1  0.375000  0.875000  0.823738  1
  Ti  Ti51  1  0.875000  0.875000  0.823738  1
  Ti  Ti52  1  0.125000  0.125000  0.823738  1
  Ti  Ti53  1  0.625000  0.125000  0.823738  1
  Ti  Ti54  1  0.125000  0.625000  0.823738  1
  Ti  Ti55  1  0.625000  0.625000  0.823738  1
  Ti  Ti56  1  0.125000  0.375000  0.910084  1
  Ti  Ti57  1  0.625000  0.375000  0.910084  1
  Ti  Ti58  1  0.125000  0.875000  0.910084  1
  Ti  Ti59  1  0.625000  0.875000  0.910084  1
  Ti  Ti60  1  0.375000  0.125000  0.910084  1
  Ti  Ti61  1  0.875000  0.125000  0.910084  1
  Ti  Ti62  1  0.375000  0.625000  0.910084  1
  Ti  Ti63  1  0.875000  0.625000  0.910084  1
  Ti  Ti64  1  0.392736  0.384887  0.659846  1
  Ti  Ti65  1  0.891481  0.370246  0.646533  1
  Ti  Ti66  1  0.393874  0.895257  0.642030  1
  Ti  Ti67  1  0.881851  0.884883  0.670265  1
  Ti  Ti68  1  0.108519  0.129754  0.646533  1
  Ti  Ti69  1  0.607264  0.115113  0.659846  1
  Ti  Ti70  1  0.118149  0.615117  0.670265  1
  Ti  Ti71  1  0.606126  0.604743  0.642030  1
  Ti  Ti72  1  0.150525  0.379659  0.566955  1
  Ti  Ti73  1  0.637821  0.335207  0.570154  1
  Ti  Ti74  1  0.120898  0.858605  0.586617  1
  Ti  Ti75  1  0.658836  0.867074  0.581068  1
  Ti  Ti76  1  0.362179  0.164793  0.570154  1
  Ti  Ti77  1  0.849475  0.120341  0.566955  1
  Ti  Ti78  1  0.341164  0.632926  0.581068  1
  Ti  Ti79  1  0.879102  0.641395  0.586617  1
  Ti  Ti80  1  0.414083  0.420324  0.487584  1
  Ti  Ti81  1  0.899834  0.375710  0.487137  1
  Ti  Ti82  1  0.320142  0.926449  0.488916  1
  Ti  Ti83  1  0.903995  0.877267  0.487147  1
  Ti  Ti84  1  0.100166  0.124290  0.487137  1
  Ti  Ti85  1  0.585917  0.079676  0.487584  1
  Ti  Ti86  1  0.096005  0.622733  0.487147  1
  Ti  Ti87  1  0.679858  0.573551  0.488916  1
  Ti  Ti88  1  0.125000  0.875000  0.737395  1
  Ti  Ti89  1  0.625000  0.875000  0.737395  1
  Ti  Ti90  1  0.375000  0.625000  0.737395  1
  Ti  Ti91  1  0.875000  0.625000  0.737395  1
  Ti  Ti92  1  0.125000  0.375000  0.737395  1
  Ti  Ti93  1  0.625000  0.375000  0.737395  1
  Ti  Ti94  1  0.375000  0.125000  0.737395  1
  Ti  Ti95  1  0.875000  0.125000  0.737395  1
  Ti  Ti96  1  0.500000  0.750000  0.483458  1
