# generated using pymatgen
data_Ti
_symmetry_space_group_name_H-M   'P 1'
_cell_length_a   9.51302000
_cell_length_b   9.35086000
_cell_length_c   18.54723000
_cell_angle_alpha   90.00000000
_cell_angle_beta   90.00000000
_cell_angle_gamma   90.00000000
_symmetry_Int_Tables_number   1
_chemical_formula_structural   Ti
_chemical_formula_sum   Ti97
_cell_volume   1649.86732743
_cell_formula_units_Z   97
loop_
 _symmetry_equiv_pos_site_id
 _symmetry_equiv_pos_as_xyz
  1  'x, y, z'
loop_
 _atom_site_type_symbol
 _atom_site_label
 _atom_site_symmetry_multiplicity
 _atom_site_fract_x
 _atom_site_fract_y
 _atom_site_fract_z
 _atom_site_occupancy
  Ti  Ti0  1  0.146848  0.371025  0.406679  1
  Ti  Ti1  1  0.643505  0.342635  0.406089  1
  Ti  Ti2  1  0.143440  0.855837  0.393722  1
  Ti  Ti3  1  0.671469  0.886446  0.393890  1
  Ti  Ti4  1  0.160018  0.373543  0.234815  1
  Ti  Ti5  1  0.662556  0.373362  0.232876  1
  Ti  Ti6  1  0.161906  0.874125  0.235264  1
  Ti  Ti7  1  0.654525  0.866976  0.239226  1
  Ti  Ti8  1  0.166675  0.375007  0.077678  1
  Ti  Ti9  1  0.666662  0.375004  0.077673  1
  Ti  Ti10  1  0.166688  0.875011  0.077696  1
  Ti  Ti11  1  0.666671  0.875008  0.077701  1
  Ti  Ti12  1  0.404856  0.375874  0.312879  1
  Ti  Ti13  1  0.897177  0.373082  0.321063  1
  Ti  Ti14  1  0.402493  0.898639  0.325024  1
  Ti  Ti15  1  0.913588  0.884685  0.312143  1
  Ti  Ti16  1  0.416655  0.375010  0.155322  1
  Ti  Ti17  1  0.916664  0.374985  0.155319  1
  Ti  Ti18  1  0.416675  0.875018  0.155363  1
  Ti  Ti19  1  0.916706  0.875041  0.155339  1
  Ti  Ti20  1  0.416665  0.375004  -0.000008  1
  Ti  Ti21  1  0.916663  0.375000  -0.000008  1
  Ti  Ti22  1  0.416670  0.874998  0.000007  1
  Ti  Ti23  1  0.916670  0.875004  0.000002  1
  Ti  Ti24  1  0.102823  0.126918  0.321062  1
  Ti  Ti25  1  0.595144  0.124126  0.312878  1
  Ti  Ti26  1  0.086412  0.615315  0.312142  1
  Ti  Ti27  1  0.597507  0.601361  0.325023  1
  Ti  Ti28  1  0.083336  0.125017  0.155319  1
  Ti  Ti29  1  0.583345  0.124993  0.155322  1
  Ti  Ti30  1  0.083294  0.624961  0.155340  1
  Ti  Ti31  1  0.583325  0.624983  0.155363  1
  Ti  Ti32  1  0.083337  0.125001  -0.000009  1
  Ti  Ti33  1  0.583335  0.124997  -0.000008  1
  Ti  Ti34  1  0.083330  0.624996  0.000002  1
  Ti  Ti35  1  0.583330  0.625001  0.000007  1
  Ti  Ti36  1  0.356494  0.157365  0.406089  1
  Ti  Ti37  1  0.853151  0.128975  0.406679  1
  Ti  Ti38  1  0.328530  0.613554  0.393890  1
  Ti  Ti39  1  0.856559  0.644163  0.393722  1
  Ti  Ti40  1  0.337443  0.126638  0.232875  1
  Ti  Ti41  1  0.839981  0.126458  0.234815  1
  Ti  Ti42  1  0.345475  0.633025  0.239226  1
  Ti  Ti43  1  0.838093  0.625875  0.235264  1
  Ti  Ti44  1  0.333337  0.124997  0.077673  1
  Ti  Ti45  1  0.833324  0.124994  0.077678  1
  Ti  Ti46  1  0.333328  0.624993  0.077701  1
  Ti  Ti47  1  0.833311  0.624989  0.077696  1
  Ti  Ti48  1  0.374991  0.375018  0.823753  1
  Ti  Ti49  1  0.874999  0.374994  0.823766  1
  Ti  Ti50  1  0.374997  0.874990  0.823745  1
  Ti  Ti51  1  0.874995  0.875001  0.823749  1
  Ti  Ti52  1  0.125001  0.125006  0.823766  1
  Ti  Ti53  1  0.625010  0.124981  0.823753  1
  Ti  Ti54  1  0.125005  0.624999  0.823749  1
  Ti  Ti55  1  0.625004  0.625010  0.823745  1
  Ti  Ti56  1  0.125001  0.375006  0.910094  1
  Ti  Ti57  1  0.625001  0.375005  0.910092  1
  Ti  Ti58  1  0.124999  0.875000  0.910096  1
  Ti  Ti59  1  0.625004  0.874998  0.910090  1
  Ti  Ti60  1  0.375000  0.124995  0.910092  1
  Ti  Ti61  1  0.875000  0.124994  0.910094  1
  Ti  Ti62  1  0.374996  0.625002  0.910091  1
  Ti  Ti63  1  0.875002  0.625000  0.910096  1
  Ti  Ti64  1  0.392659  0.388129  0.658150  1
  Ti  Ti65  1  0.894553  0.372080  0.647641  1
  Ti  Ti66  1  0.393237  0.891946  0.645221  1
  Ti  Ti67  1  0.882470  0.884559  0.668048  1
  Ti  Ti68  1  0.105447  0.127920  0.647641  1
  Ti  Ti69  1  0.607341  0.111871  0.658150  1
  Ti  Ti70  1  0.117530  0.615441  0.668048  1
  Ti  Ti71  1  0.606763  0.608053  0.645221  1
  Ti  Ti72  1  0.150263  0.379638  0.566954  1
  Ti  Ti73  1  0.642018  0.339805  0.574065  1
  Ti  Ti74  1  0.123877  0.858788  0.585120  1
  Ti  Ti75  1  0.656737  0.863904  0.576309  1
  Ti  Ti76  1  0.357982  0.160195  0.574065  1
  Ti  Ti77  1  0.849737  0.120362  0.566954  1
  Ti  Ti78  1  0.343263  0.636096  0.576309  1
  Ti  Ti79  1  0.876123  0.641211  0.585120  1
  Ti  Ti80  1  0.411704  0.408078  0.489897  1
  Ti  Ti81  1  0.898475  0.376543  0.487994  1
  Ti  Ti82  1  0.332317  0.925064  0.492668  1
  Ti  Ti83  1  0.907124  0.877290  0.486043  1
  Ti  Ti84  1  0.101525  0.123457  0.487994  1
  Ti  Ti85  1  0.588296  0.091922  0.489897  1
  Ti  Ti86  1  0.092876  0.622710  0.486043  1
  Ti  Ti87  1  0.667683  0.574936  0.492668  1
  Ti  Ti88  1  0.124965  0.875015  0.737458  1
  Ti  Ti89  1  0.625073  0.874969  0.737414  1
  Ti  Ti90  1  0.374927  0.625030  0.737415  1
  Ti  Ti91  1  0.875034  0.624982  0.737458  1
  Ti  Ti92  1  0.124993  0.375024  0.737457  1
  Ti  Ti93  1  0.625018  0.374939  0.737474  1
  Ti  Ti94  1  0.374981  0.125057  0.737473  1
  Ti  Ti95  1  0.875006  0.124974  0.737457  1
  Ti  Ti96  1  0.500000  0.750000  0.464944  1
