# generated using pymatgen
data_Ti96Al
_symmetry_space_group_name_H-M   'P 1'
_cell_length_a   9.51302000
_cell_length_b   9.35086000
_cell_length_c   18.54723000
_cell_angle_alpha   90.00000000
_cell_angle_beta   90.00000000
_cell_angle_gamma   90.00000000
_symmetry_Int_Tables_number   1
_chemical_formula_structural   Ti96Al
_chemical_formula_sum   'Ti96 Al1'
_cell_volume   1649.86732743
_cell_formula_units_Z   1
loop_
 _symmetry_equiv_pos_site_id
 _symmetry_equiv_pos_as_xyz
  1  'x, y, z'
loop_
 _atom_site_type_symbol
 _atom_site_label
 _atom_site_symmetry_multiplicity
 _atom_site_fract_x
 _atom_site_fract_y
 _atom_site_fract_z
 _atom_site_occupancy
  Ti  Ti0  1  0.139338  0.385629  0.399702  1
  Ti  Ti1  1  0.652314  0.362851  0.392768  1
  Ti  Ti2  1  0.169431  0.882824  0.404123  1
  Ti  Ti3  1  0.646257  0.917518  0.393393  1
  Ti  Ti4  1  0.164990  0.376277  0.234756  1
  Ti  Ti5  1  0.659052  0.383410  0.235453  1
  Ti  Ti6  1  0.157274  0.875269  0.236316  1
  Ti  Ti7  1  0.659050  0.873205  0.236553  1
  Ti  Ti8  1  0.166666  0.375000  0.077689  1
  Ti  Ti9  1  0.666666  0.375000  0.077689  1
  Ti  Ti10  1  0.166666  0.875000  0.077689  1
  Ti  Ti11  1  0.666666  0.875000  0.077689  1
  Ti  Ti12  1  0.403229  0.378796  0.321181  1
  Ti  Ti13  1  0.914240  0.364428  0.306132  1
  Ti  Ti14  1  0.408431  0.872551  0.314871  1
  Ti  Ti15  1  0.903995  0.861652  0.332062  1
  Ti  Ti16  1  0.416667  0.375000  0.155379  1
  Ti  Ti17  1  0.916667  0.375000  0.155379  1
  Ti  Ti18  1  0.416667  0.875000  0.155379  1
  Ti  Ti19  1  0.916667  0.875000  0.155379  1
  Ti  Ti20  1  0.416667  0.375000  0.000000  1
  Ti  Ti21  1  0.916667  0.375000  0.000000  1
  Ti  Ti22  1  0.416667  0.875000  0.000000  1
  Ti  Ti23  1  0.916667  0.875000  0.000000  1
  Ti  Ti24  1  0.096771  0.121204  0.321180  1
  Ti  Ti25  1  0.585760  0.135572  0.306131  1
  Ti  Ti26  1  0.091569  0.627449  0.314870  1
  Ti  Ti27  1  0.596005  0.638348  0.332061  1
  Ti  Ti28  1  0.083333  0.125000  0.155379  1
  Ti  Ti29  1  0.583333  0.125000  0.155379  1
  Ti  Ti30  1  0.083333  0.625000  0.155379  1
  Ti  Ti31  1  0.583333  0.625000  0.155379  1
  Ti  Ti32  1  0.083333  0.125000  0.000000  1
  Ti  Ti33  1  0.583333  0.125000  0.000000  1
  Ti  Ti34  1  0.083333  0.625000  0.000000  1
  Ti  Ti35  1  0.583333  0.625000  0.000000  1
  Ti  Ti36  1  0.360661  0.114371  0.399702  1
  Ti  Ti37  1  0.847685  0.137149  0.392768  1
  Ti  Ti38  1  0.330568  0.617176  0.404123  1
  Ti  Ti39  1  0.853742  0.582482  0.393393  1
  Ti  Ti40  1  0.335009  0.123723  0.234756  1
  Ti  Ti41  1  0.840947  0.116590  0.235453  1
  Ti  Ti42  1  0.342725  0.624731  0.236316  1
  Ti  Ti43  1  0.840949  0.626795  0.236553  1
  Ti  Ti44  1  0.333333  0.125000  0.077689  1
  Ti  Ti45  1  0.833333  0.125000  0.077689  1
  Ti  Ti46  1  0.333333  0.625000  0.077689  1
  Ti  Ti47  1  0.833333  0.625000  0.077689  1
  Ti  Ti48  1  0.375000  0.375000  0.823738  1
  Ti  Ti49  1  0.875000  0.375000  0.823738  1
  Ti  Ti50  1  0.375000  0.875000  0.823738  1
  Ti  Ti51  1  0.875000  0.875000  0.823738  1
  Ti  Ti52  1  0.125000  0.125000  0.823738  1
  Ti  Ti53  1  0.625000  0.125000  0.823738  1
  Ti  Ti54  1  0.125000  0.625000  0.823738  1
  Ti  Ti55  1  0.625000  0.625000  0.823738  1
  Ti  Ti56  1  0.125000  0.375000  0.910084  1
  Ti  Ti57  1  0.625000  0.375000  0.910084  1
  Ti  Ti58  1  0.125000  0.875000  0.910084  1
  Ti  Ti59  1  0.625000  0.875000  0.910084  1
  Ti  Ti60  1  0.375000  0.125000  0.910084  1
  Ti  Ti61  1  0.875000  0.125000  0.910084  1
  Ti  Ti62  1  0.375000  0.625000  0.910084  1
  Ti  Ti63  1  0.875000  0.625000  0.910084  1
  Ti  Ti64  1  0.386468  0.367774  0.643575  1
  Ti  Ti65  1  0.886488  0.364538  0.671391  1
  Ti  Ti66  1  0.383338  0.857798  0.664507  1
  Ti  Ti67  1  0.894937  0.862354  0.639006  1
  Ti  Ti68  1  0.113532  0.132226  0.643575  1
  Ti  Ti69  1  0.613512  0.135462  0.671391  1
  Ti  Ti70  1  0.116662  0.642202  0.664507  1
  Ti  Ti71  1  0.605063  0.637646  0.639006  1
  Ti  Ti72  1  0.128333  0.400018  0.575821  1
  Ti  Ti73  1  0.651818  0.368541  0.581145  1
  Ti  Ti74  1  0.164307  0.880454  0.566857  1
  Ti  Ti75  1  0.624940  0.915019  0.583829  1
  Ti  Ti76  1  0.371667  0.099982  0.575821  1
  Ti  Ti77  1  0.848182  0.131459  0.581145  1
  Ti  Ti78  1  0.335693  0.619546  0.566857  1
  Ti  Ti79  1  0.875060  0.584981  0.583829  1
  Ti  Ti80  1  0.369715  0.353295  0.487411  1
  Ti  Ti81  1  0.901251  0.353239  0.489986  1
  Ti  Ti82  1  0.429415  0.848780  0.482821  1
  Ti  Ti83  1  0.936613  0.937334  0.483742  1
  Ti  Ti84  1  0.130285  0.146705  0.487411  1
  Ti  Ti85  1  0.598749  0.146761  0.489986  1
  Ti  Ti86  1  0.070585  0.651220  0.482821  1
  Ti  Ti87  1  0.563387  0.562666  0.483742  1
  Ti  Ti88  1  0.125000  0.875000  0.737395  1
  Ti  Ti89  1  0.625000  0.875000  0.737395  1
  Ti  Ti90  1  0.375000  0.625000  0.737395  1
  Ti  Ti91  1  0.875000  0.625000  0.737395  1
  Ti  Ti92  1  0.125000  0.375000  0.737395  1
  Ti  Ti93  1  0.625000  0.375000  0.737395  1
  Ti  Ti94  1  0.375000  0.125000  0.737395  1
  Ti  Ti95  1  0.875000  0.125000  0.737395  1
  Al  Al96  1  0.750000  0.750000  0.492904  1
