# generated using pymatgen
data_Ti96Mo
_symmetry_space_group_name_H-M   'P 1'
_cell_length_a   9.51302000
_cell_length_b   9.35086000
_cell_length_c   18.54723000
_cell_angle_alpha   90.00000000
_cell_angle_beta   90.00000000
_cell_angle_gamma   90.00000000
_symmetry_Int_Tables_number   1
_chemical_formula_structural   Ti96Mo
_chemical_formula_sum   'Ti96 Mo1'
_cell_volume   1649.86732743
_cell_formula_units_Z   1
loop_
 _symmetry_equiv_pos_site_id
 _symmetry_equiv_pos_as_xyz
  1  'x, y, z'
loop_
 _atom_site_type_symbol
 _atom_site_label
 _atom_site_symmetry_multiplicity
 _atom_site_fract_x
 _atom_site_fract_y
 _atom_site_fract_z
 _atom_site_occupancy
  Ti  Ti0  1  0.148675  0.376149  0.405223  1
  Ti  Ti1  1  0.651184  0.340825  0.401121  1
  Ti  Ti2  1  0.130247  0.858492  0.394026  1
  Ti  Ti3  1  0.665805  0.860437  0.399154  1
  Ti  Ti4  1  0.162592  0.370596  0.235147  1
  Ti  Ti5  1  0.658373  0.374992  0.234900  1
  Ti  Ti6  1  0.163887  0.874136  0.235241  1
  Ti  Ti7  1  0.655156  0.871038  0.236338  1
  Ti  Ti8  1  0.166672  0.375029  0.077658  1
  Ti  Ti9  1  0.666672  0.375010  0.077640  1
  Ti  Ti10  1  0.166666  0.874986  0.077660  1
  Ti  Ti11  1  0.666682  0.874986  0.077651  1
  Ti  Ti12  1  0.405220  0.384359  0.316944  1
  Ti  Ti13  1  0.901897  0.373676  0.319577  1
  Ti  Ti14  1  0.402267  0.891515  0.328001  1
  Ti  Ti15  1  0.908902  0.883692  0.309891  1
  Ti  Ti16  1  0.416656  0.375000  0.155309  1
  Ti  Ti17  1  0.916670  0.374987  0.155293  1
  Ti  Ti18  1  0.416665  0.874985  0.155331  1
  Ti  Ti19  1  0.916671  0.875000  0.155331  1
  Ti  Ti20  1  0.416667  0.375025  -0.000025  1
  Ti  Ti21  1  0.916644  0.375014  -0.000019  1
  Ti  Ti22  1  0.416669  0.874986  -0.000034  1
  Ti  Ti23  1  0.916651  0.874987  -0.000025  1
  Ti  Ti24  1  0.098103  0.126324  0.319576  1
  Ti  Ti25  1  0.594780  0.115641  0.316943  1
  Ti  Ti26  1  0.091098  0.616308  0.309890  1
  Ti  Ti27  1  0.597733  0.608485  0.328000  1
  Ti  Ti28  1  0.083330  0.125018  0.155294  1
  Ti  Ti29  1  0.583344  0.125005  0.155309  1
  Ti  Ti30  1  0.083329  0.625004  0.155331  1
  Ti  Ti31  1  0.583335  0.625019  0.155331  1
  Ti  Ti32  1  0.083356  0.124991  -0.000019  1
  Ti  Ti33  1  0.583334  0.124981  -0.000024  1
  Ti  Ti34  1  0.083350  0.625019  -0.000024  1
  Ti  Ti35  1  0.583332  0.625021  -0.000034  1
  Ti  Ti36  1  0.348815  0.159175  0.401121  1
  Ti  Ti37  1  0.851324  0.123851  0.405223  1
  Ti  Ti38  1  0.334194  0.639563  0.399154  1
  Ti  Ti39  1  0.869752  0.641508  0.394026  1
  Ti  Ti40  1  0.341626  0.125008  0.234900  1
  Ti  Ti41  1  0.837407  0.129404  0.235147  1
  Ti  Ti42  1  0.344843  0.628962  0.236338  1
  Ti  Ti43  1  0.836112  0.625865  0.235241  1
  Ti  Ti44  1  0.333328  0.124996  0.077640  1
  Ti  Ti45  1  0.833328  0.124975  0.077659  1
  Ti  Ti46  1  0.333317  0.625020  0.077651  1
  Ti  Ti47  1  0.833333  0.625020  0.077660  1
  Ti  Ti48  1  0.375021  0.375004  0.823839  1
  Ti  Ti49  1  0.874963  0.374962  0.823836  1
  Ti  Ti50  1  0.374999  0.874982  0.823787  1
  Ti  Ti51  1  0.875059  0.874953  0.823783  1
  Ti  Ti52  1  0.125041  0.125035  0.823836  1
  Ti  Ti53  1  0.624983  0.124997  0.823840  1
  Ti  Ti54  1  0.124943  0.625048  0.823784  1
  Ti  Ti55  1  0.625003  0.625013  0.823788  1
  Ti  Ti56  1  0.124983  0.375016  0.910128  1
  Ti  Ti57  1  0.625005  0.374996  0.910122  1
  Ti  Ti58  1  0.124998  0.874980  0.910102  1
  Ti  Ti59  1  0.625007  0.874973  0.910106  1
  Ti  Ti60  1  0.374998  0.125004  0.910122  1
  Ti  Ti61  1  0.875021  0.124983  0.910128  1
  Ti  Ti62  1  0.374995  0.625027  0.910106  1
  Ti  Ti63  1  0.875006  0.625021  0.910102  1
  Ti  Ti64  1  0.389758  0.380684  0.662480  1
  Ti  Ti65  1  0.887632  0.376307  0.646612  1
  Ti  Ti66  1  0.389365  0.893512  0.648000  1
  Ti  Ti67  1  0.888349  0.884607  0.665089  1
  Ti  Ti68  1  0.112367  0.123692  0.646611  1
  Ti  Ti69  1  0.610241  0.119313  0.662481  1
  Ti  Ti70  1  0.111650  0.615390  0.665090  1
  Ti  Ti71  1  0.610634  0.606486  0.648000  1
  Ti  Ti72  1  0.147049  0.372192  0.568632  1
  Ti  Ti73  1  0.635940  0.340744  0.571414  1
  Ti  Ti74  1  0.132685  0.856203  0.580895  1
  Ti  Ti75  1  0.663403  0.882067  0.577710  1
  Ti  Ti76  1  0.364060  0.159256  0.571414  1
  Ti  Ti77  1  0.852950  0.127807  0.568632  1
  Ti  Ti78  1  0.336596  0.617932  0.577710  1
  Ti  Ti79  1  0.867315  0.643797  0.580895  1
  Ti  Ti80  1  0.410351  0.406083  0.483331  1
  Ti  Ti81  1  0.896902  0.376375  0.488211  1
  Ti  Ti82  1  0.331734  -0.073999  0.484649  1
  Ti  Ti83  1  0.909363  0.880391  0.488493  1
  Ti  Ti84  1  0.103098  0.123625  0.488211  1
  Ti  Ti85  1  0.589649  0.093917  0.483331  1
  Ti  Ti86  1  0.090637  0.619609  0.488493  1
  Ti  Ti87  1  0.668266  0.573999  0.484649  1
  Ti  Ti88  1  0.125202  0.874981  0.737542  1
  Ti  Ti89  1  0.625107  0.874861  0.737639  1
  Ti  Ti90  1  0.374885  0.625125  0.737638  1
  Ti  Ti91  1  0.874795  0.625011  0.737544  1
  Ti  Ti92  1  0.124857  0.374832  0.737618  1
  Ti  Ti93  1  0.625046  0.374772  0.737602  1
  Ti  Ti94  1  0.374948  0.125215  0.737599  1
  Ti  Ti95  1  0.875138  0.125155  0.737615  1
  Mo  Mo96  1  0.500000  0.750000  0.504689  1
