# generated using pymatgen
data_ZrTi96
_symmetry_space_group_name_H-M   'P 1'
_cell_length_a   9.51302000
_cell_length_b   9.35086000
_cell_length_c   18.54723000
_cell_angle_alpha   90.00000000
_cell_angle_beta   90.00000000
_cell_angle_gamma   90.00000000
_symmetry_Int_Tables_number   1
_chemical_formula_structural   ZrTi96
_chemical_formula_sum   'Zr1 Ti96'
_cell_volume   1649.86732743
_cell_formula_units_Z   1
loop_
 _symmetry_equiv_pos_site_id
 _symmetry_equiv_pos_as_xyz
  1  'x, y, z'
loop_
 _atom_site_type_symbol
 _atom_site_label
 _atom_site_symmetry_multiplicity
 _atom_site_fract_x
 _atom_site_fract_y
 _atom_site_fract_z
 _atom_site_occupancy
  Ti  Ti0  1  0.145607  0.369324  0.403357  1
  Ti  Ti1  1  0.648216  0.350636  0.395845  1
  Ti  Ti2  1  0.149993  0.856437  0.394459  1
  Ti  Ti3  1  0.671118  0.886008  0.400830  1
  Ti  Ti4  1  0.157608  0.370393  0.237147  1
  Ti  Ti5  1  0.660891  0.373049  0.233792  1
  Ti  Ti6  1  0.162192  0.874838  0.234665  1
  Ti  Ti7  1  0.662651  0.871687  0.234655  1
  Ti  Ti8  1  0.166640  0.375041  0.077645  1
  Ti  Ti9  1  0.666678  0.374994  0.077635  1
  Ti  Ti10  1  0.166666  0.874992  0.077646  1
  Ti  Ti11  1  0.666664  0.874984  0.077625  1
  Ti  Ti12  1  0.407088  0.381474  0.312736  1
  Ti  Ti13  1  0.900126  0.381819  0.322996  1
  Ti  Ti14  1  0.406705  0.880332  0.317910  1
  Ti  Ti15  1  0.910360  0.880951  0.313593  1
  Ti  Ti16  1  0.416697  0.375009  0.155203  1
  Ti  Ti17  1  0.916637  0.374969  0.155213  1
  Ti  Ti18  1  0.416660  0.874992  0.155226  1
  Ti  Ti19  1  0.916711  0.874984  0.155171  1
  Ti  Ti20  1  0.416666  0.375055  -0.000041  1
  Ti  Ti21  1  0.916614  0.375031  -0.000029  1
  Ti  Ti22  1  0.416655  0.874977  -0.000088  1
  Ti  Ti23  1  0.916631  0.874980  -0.000072  1
  Ti  Ti24  1  0.099874  0.118182  0.322995  1
  Ti  Ti25  1  0.592912  0.118527  0.312735  1
  Ti  Ti26  1  0.089640  0.619050  0.313592  1
  Ti  Ti27  1  0.593295  0.619669  0.317909  1
  Ti  Ti28  1  0.083364  0.125042  0.155213  1
  Ti  Ti29  1  0.583303  0.125003  0.155203  1
  Ti  Ti30  1  0.083289  0.625032  0.155171  1
  Ti  Ti31  1  0.583341  0.625022  0.155226  1
  Ti  Ti32  1  0.083387  0.124977  -0.000028  1
  Ti  Ti33  1  0.583335  0.124957  -0.000039  1
  Ti  Ti34  1  0.083369  0.625037  -0.000071  1
  Ti  Ti35  1  0.583346  0.625041  -0.000087  1
  Ti  Ti36  1  0.351783  0.149364  0.395845  1
  Ti  Ti37  1  0.854392  0.130677  0.403357  1
  Ti  Ti38  1  0.328881  0.613992  0.400830  1
  Ti  Ti39  1  0.850006  0.643563  0.394459  1
  Ti  Ti40  1  0.339108  0.126954  0.233792  1
  Ti  Ti41  1  0.842391  0.129610  0.237147  1
  Ti  Ti42  1  0.337348  0.628315  0.234655  1
  Ti  Ti43  1  0.837807  0.625165  0.234665  1
  Ti  Ti44  1  0.333322  0.125017  0.077635  1
  Ti  Ti45  1  0.833359  0.124970  0.077646  1
  Ti  Ti46  1  0.333335  0.625031  0.077625  1
  Ti  Ti47  1  0.833334  0.625021  0.077646  1
  Ti  Ti48  1  0.374978  0.375006  0.823990  1
  Ti  Ti49  1  0.874966  0.374922  0.823952  1
  Ti  Ti50  1  0.375032  0.874964  0.823862  1
  Ti  Ti51  1  0.875031  0.874973  0.823866  1
  Ti  Ti52  1  0.125043  0.125066  0.823952  1
  Ti  Ti53  1  0.625028  0.124991  0.823991  1
  Ti  Ti54  1  0.124971  0.625026  0.823868  1
  Ti  Ti55  1  0.624974  0.625021  0.823864  1
  Ti  Ti56  1  0.124985  0.375033  0.910173  1
  Ti  Ti57  1  0.625023  0.374995  0.910184  1
  Ti  Ti58  1  0.125036  0.874967  0.910111  1
  Ti  Ti59  1  0.625004  0.874962  0.910123  1
  Ti  Ti60  1  0.374982  0.125001  0.910183  1
  Ti  Ti61  1  0.875022  0.124963  0.910172  1
  Ti  Ti62  1  0.375000  0.625037  0.910122  1
  Ti  Ti63  1  0.874971  0.625033  0.910110  1
  Ti  Ti64  1  0.385516  0.378470  0.664352  1
  Ti  Ti65  1  0.886356  0.381478  0.648850  1
  Ti  Ti66  1  0.380235  0.891720  0.657377  1
  Ti  Ti67  1  0.896136  0.880200  0.660145  1
  Ti  Ti68  1  0.113643  0.118519  0.648849  1
  Ti  Ti69  1  0.614482  0.121524  0.664352  1
  Ti  Ti70  1  0.103861  0.619794  0.660145  1
  Ti  Ti71  1  0.619764  0.608273  0.657378  1
  Ti  Ti72  1  0.140333  0.369682  0.570126  1
  Ti  Ti73  1  0.638703  0.351221  0.577376  1
  Ti  Ti74  1  0.142542  0.856487  0.572645  1
  Ti  Ti75  1  0.674255  0.903636  0.574691  1
  Ti  Ti76  1  0.361296  0.148778  0.577376  1
  Ti  Ti77  1  0.859666  0.130317  0.570126  1
  Ti  Ti78  1  0.325745  0.596362  0.574691  1
  Ti  Ti79  1  0.857457  0.643511  0.572645  1
  Ti  Ti80  1  0.405001  0.381315  0.486726  1
  Ti  Ti81  1  0.890628  0.376210  0.488868  1
  Ti  Ti82  1  0.347307  0.936975  0.482078  1
  Ti  Ti83  1  0.916255  0.882499  0.483057  1
  Ti  Ti84  1  0.109371  0.123790  0.488868  1
  Ti  Ti85  1  0.594999  0.118685  0.486726  1
  Ti  Ti86  1  0.083744  0.617501  0.483057  1
  Ti  Ti87  1  0.652693  0.563024  0.482079  1
  Ti  Ti88  1  0.125597  0.875029  0.737702  1
  Ti  Ti89  1  0.625202  0.874930  0.737776  1
  Ti  Ti90  1  0.374785  0.625044  0.737777  1
  Ti  Ti91  1  0.874396  0.624952  0.737708  1
  Ti  Ti92  1  0.124795  0.374845  0.737770  1
  Ti  Ti93  1  0.625103  0.374666  0.737826  1
  Ti  Ti94  1  0.374885  0.125304  0.737822  1
  Ti  Ti95  1  0.875197  0.125129  0.737766  1
  Zr  Zr96  1  0.500000  0.749999  0.513998  1
