# generated using pymatgen
data_Ti96Cr
_symmetry_space_group_name_H-M   'P 1'
_cell_length_a   9.51302000
_cell_length_b   9.35086000
_cell_length_c   18.54723000
_cell_angle_alpha   90.00000000
_cell_angle_beta   90.00000000
_cell_angle_gamma   90.00000000
_symmetry_Int_Tables_number   1
_chemical_formula_structural   Ti96Cr
_chemical_formula_sum   'Ti96 Cr1'
_cell_volume   1649.86732743
_cell_formula_units_Z   1
loop_
 _symmetry_equiv_pos_site_id
 _symmetry_equiv_pos_as_xyz
  1  'x, y, z'
loop_
 _atom_site_type_symbol
 _atom_site_label
 _atom_site_symmetry_multiplicity
 _atom_site_fract_x
 _atom_site_fract_y
 _atom_site_fract_z
 _atom_site_occupancy
  Ti  Ti0  1  0.141934  0.381899  0.405039  1
  Ti  Ti1  1  0.649880  0.362552  0.397915  1
  Ti  Ti2  1  0.167730  0.884093  0.404327  1
  Ti  Ti3  1  0.641829  0.926566  0.399077  1
  Ti  Ti4  1  0.162828  0.379010  0.235680  1
  Ti  Ti5  1  0.659284  0.380359  0.234475  1
  Ti  Ti6  1  0.159067  0.875638  0.236538  1
  Ti  Ti7  1  0.657917  0.876586  0.235668  1
  Ti  Ti8  1  0.166655  0.375019  0.077562  1
  Ti  Ti9  1  0.666675  0.375029  0.077541  1
  Ti  Ti10  1  0.166679  0.875006  0.077559  1
  Ti  Ti11  1  0.666675  0.874976  0.077597  1
  Ti  Ti12  1  0.400033  0.371243  0.319922  1
  Ti  Ti13  1  0.912348  0.363812  0.310028  1
  Ti  Ti14  1  0.407699  0.866564  0.319816  1
  Ti  Ti15  1  0.908296  0.872824  0.327809  1
  Ti  Ti16  1  0.416561  0.375036  0.155190  1
  Ti  Ti17  1  0.916760  0.375024  0.155138  1
  Ti  Ti18  1  0.416669  0.874964  0.155215  1
  Ti  Ti19  1  0.916734  0.874925  0.155247  1
  Ti  Ti20  1  0.416674  0.375006  -0.000064  1
  Ti  Ti21  1  0.916656  0.375019  -0.000066  1
  Ti  Ti22  1  0.416684  0.874993  -0.000060  1
  Ti  Ti23  1  0.916651  0.874990  -0.000043  1
  Ti  Ti24  1  0.099967  0.128758  0.319921  1
  Ti  Ti25  1  0.587652  0.136188  0.310027  1
  Ti  Ti26  1  0.092301  0.633437  0.319814  1
  Ti  Ti27  1  0.591704  0.627177  0.327808  1
  Ti  Ti28  1  0.083441  0.124974  0.155189  1
  Ti  Ti29  1  0.583238  0.124988  0.155138  1
  Ti  Ti30  1  0.083334  0.625046  0.155215  1
  Ti  Ti31  1  0.583265  0.625084  0.155245  1
  Ti  Ti32  1  0.083329  0.124998  -0.000063  1
  Ti  Ti33  1  0.583343  0.124986  -0.000065  1
  Ti  Ti34  1  0.083318  0.625010  -0.000060  1
  Ti  Ti35  1  0.583347  0.625013  -0.000043  1
  Ti  Ti36  1  0.358065  0.118101  0.405039  1
  Ti  Ti37  1  0.850119  0.137448  0.397915  1
  Ti  Ti38  1  0.332269  0.615907  0.404327  1
  Ti  Ti39  1  0.858170  0.573434  0.399077  1
  Ti  Ti40  1  0.337171  0.120992  0.235680  1
  Ti  Ti41  1  0.840715  0.119644  0.234475  1
  Ti  Ti42  1  0.340932  0.624364  0.236538  1
  Ti  Ti43  1  0.842082  0.623416  0.235668  1
  Ti  Ti44  1  0.333344  0.124989  0.077563  1
  Ti  Ti45  1  0.833325  0.124980  0.077542  1
  Ti  Ti46  1  0.333320  0.625003  0.077559  1
  Ti  Ti47  1  0.833324  0.625032  0.077596  1
  Ti  Ti48  1  0.375004  0.374997  0.823841  1
  Ti  Ti49  1  0.875011  0.374975  0.823738  1
  Ti  Ti50  1  0.375040  0.875006  0.823812  1
  Ti  Ti51  1  0.874956  0.874976  0.823786  1
  Ti  Ti52  1  0.125000  0.124995  0.823841  1
  Ti  Ti53  1  0.624995  0.125025  0.823738  1
  Ti  Ti54  1  0.124963  0.624987  0.823813  1
  Ti  Ti55  1  0.625048  0.625021  0.823786  1
  Ti  Ti56  1  0.124935  0.375033  0.910066  1
  Ti  Ti57  1  0.625047  0.375041  0.910037  1
  Ti  Ti58  1  0.124932  0.874974  0.910057  1
  Ti  Ti59  1  0.625031  0.874978  0.910009  1
  Ti  Ti60  1  0.375068  0.124965  0.910066  1
  Ti  Ti61  1  0.874956  0.124958  0.910037  1
  Ti  Ti62  1  0.375071  0.625023  0.910056  1
  Ti  Ti63  1  0.874972  0.625023  0.910008  1
  Ti  Ti64  1  0.390879  0.366517  0.648170  1
  Ti  Ti65  1  0.894338  0.368042  0.663538  1
  Ti  Ti66  1  0.391222  0.861735  0.657263  1
  Ti  Ti67  1  0.898384  0.861128  0.646259  1
  Ti  Ti68  1  0.109120  0.133479  0.648170  1
  Ti  Ti69  1  0.605660  0.131955  0.663538  1
  Ti  Ti70  1  0.108777  0.638261  0.657263  1
  Ti  Ti71  1  0.601615  0.638869  0.646259  1
  Ti  Ti72  1  0.141338  0.392413  0.571179  1
  Ti  Ti73  1  0.651740  0.376843  0.580258  1
  Ti  Ti74  1  0.159656  0.881159  0.569351  1
  Ti  Ti75  1  0.642494  0.897760  0.576787  1
  Ti  Ti76  1  0.358662  0.107586  0.571179  1
  Ti  Ti77  1  0.848260  0.123156  0.580258  1
  Ti  Ti78  1  0.340344  0.618840  0.569351  1
  Ti  Ti79  1  0.857505  0.602239  0.576787  1
  Ti  Ti80  1  0.389353  0.361658  0.489312  1
  Ti  Ti81  1  0.898684  0.352599  0.493506  1
  Ti  Ti82  1  0.417644  0.853646  0.485203  1
  Ti  Ti83  1  0.917933  0.907451  0.484698  1
  Ti  Ti84  1  0.110647  0.138342  0.489312  1
  Ti  Ti85  1  0.601316  0.147401  0.493506  1
  Ti  Ti86  1  0.082356  0.646354  0.485203  1
  Ti  Ti87  1  0.582067  0.592549  0.484698  1
  Ti  Ti88  1  0.125074  0.874888  0.737614  1
  Ti  Ti89  1  0.624980  0.875094  0.737468  1
  Ti  Ti90  1  0.374916  0.625091  0.737612  1
  Ti  Ti91  1  0.875017  0.624896  0.737469  1
  Ti  Ti92  1  0.124975  0.374941  0.737573  1
  Ti  Ti93  1  0.625146  0.374911  0.737526  1
  Ti  Ti94  1  0.375018  0.125044  0.737572  1
  Ti  Ti95  1  0.874850  0.125075  0.737527  1
  Cr  Cr96  1  0.750000  0.750000  0.449848  1
