# generated using pymatgen
data_Ti96Mo
_symmetry_space_group_name_H-M   'P 1'
_cell_length_a   9.51302000
_cell_length_b   9.35086000
_cell_length_c   18.54723000
_cell_angle_alpha   90.00000000
_cell_angle_beta   90.00000000
_cell_angle_gamma   90.00000000
_symmetry_Int_Tables_number   1
_chemical_formula_structural   Ti96Mo
_chemical_formula_sum   'Ti96 Mo1'
_cell_volume   1649.86732743
_cell_formula_units_Z   1
loop_
 _symmetry_equiv_pos_site_id
 _symmetry_equiv_pos_as_xyz
  1  'x, y, z'
loop_
 _atom_site_type_symbol
 _atom_site_label
 _atom_site_symmetry_multiplicity
 _atom_site_fract_x
 _atom_site_fract_y
 _atom_site_fract_z
 _atom_site_occupancy
  Ti  Ti0  1  0.143222  0.379780  0.400432  1
  Ti  Ti1  1  0.650370  0.367427  0.395521  1
  Ti  Ti2  1  0.166661  0.885047  0.399340  1
  Ti  Ti3  1  0.649851  0.913594  0.400241  1
  Ti  Ti4  1  0.163869  0.377959  0.235966  1
  Ti  Ti5  1  0.660207  0.381270  0.235114  1
  Ti  Ti6  1  0.157238  0.875439  0.235800  1
  Ti  Ti7  1  0.659944  0.873820  0.234388  1
  Ti  Ti8  1  0.166658  0.374998  0.077675  1
  Ti  Ti9  1  0.666668  0.375000  0.077690  1
  Ti  Ti10  1  0.166676  0.875004  0.077681  1
  Ti  Ti11  1  0.666675  0.875001  0.077700  1
  Ti  Ti12  1  0.406880  0.375112  0.318119  1
  Ti  Ti13  1  0.911794  0.368942  0.309854  1
  Ti  Ti14  1  0.407920  0.870924  0.316779  1
  Ti  Ti15  1  0.901059  0.861593  0.327477  1
  Ti  Ti16  1  0.416658  0.375007  0.155312  1
  Ti  Ti17  1  0.916661  0.375017  0.155329  1
  Ti  Ti18  1  0.416695  0.874993  0.155331  1
  Ti  Ti19  1  0.916707  0.875041  0.155348  1
  Ti  Ti20  1  0.416678  0.375022  -0.000012  1
  Ti  Ti21  1  0.916653  0.375020  -0.000007  1
  Ti  Ti22  1  0.416688  0.874993  -0.000014  1
  Ti  Ti23  1  0.916652  0.874996  -0.000011  1
  Ti  Ti24  1  0.093120  0.124888  0.318118  1
  Ti  Ti25  1  0.588206  0.131058  0.309853  1
  Ti  Ti26  1  0.092080  0.629076  0.316778  1
  Ti  Ti27  1  0.598941  0.638407  0.327476  1
  Ti  Ti28  1  0.083343  0.124998  0.155312  1
  Ti  Ti29  1  0.583339  0.124987  0.155330  1
  Ti  Ti30  1  0.083305  0.625012  0.155331  1
  Ti  Ti31  1  0.583294  0.624962  0.155348  1
  Ti  Ti32  1  0.083323  0.124983  -0.000012  1
  Ti  Ti33  1  0.583347  0.124985  -0.000007  1
  Ti  Ti34  1  0.083312  0.625013  -0.000015  1
  Ti  Ti35  1  0.583349  0.625010  -0.000011  1
  Ti  Ti36  1  0.356777  0.120220  0.400432  1
  Ti  Ti37  1  0.849629  0.132573  0.395521  1
  Ti  Ti38  1  0.333338  0.614953  0.399340  1
  Ti  Ti39  1  0.850148  0.586406  0.400241  1
  Ti  Ti40  1  0.336130  0.122042  0.235966  1
  Ti  Ti41  1  0.839792  0.118731  0.235114  1
  Ti  Ti42  1  0.342761  0.624562  0.235800  1
  Ti  Ti43  1  0.840055  0.626181  0.234388  1
  Ti  Ti44  1  0.333341  0.125007  0.077675  1
  Ti  Ti45  1  0.833331  0.125003  0.077690  1
  Ti  Ti46  1  0.333322  0.625000  0.077681  1
  Ti  Ti47  1  0.833324  0.625003  0.077699  1
  Ti  Ti48  1  0.374951  0.375030  0.823819  1
  Ti  Ti49  1  0.875024  0.374964  0.823817  1
  Ti  Ti50  1  0.375009  0.874992  0.823818  1
  Ti  Ti51  1  0.874960  0.874952  0.823792  1
  Ti  Ti52  1  0.125051  0.124969  0.823819  1
  Ti  Ti53  1  0.624979  0.125033  0.823817  1
  Ti  Ti54  1  0.124993  0.625007  0.823817  1
  Ti  Ti55  1  0.625044  0.625045  0.823792  1
  Ti  Ti56  1  0.124997  0.374979  0.910128  1
  Ti  Ti57  1  0.625019  0.375015  0.910129  1
  Ti  Ti58  1  0.125010  0.874996  0.910125  1
  Ti  Ti59  1  0.625016  0.874988  0.910121  1
  Ti  Ti60  1  0.375007  0.125022  0.910127  1
  Ti  Ti61  1  0.874984  0.124985  0.910128  1
  Ti  Ti62  1  0.374993  0.625003  0.910125  1
  Ti  Ti63  1  0.874986  0.625014  0.910119  1
  Ti  Ti64  1  0.390063  0.369861  0.645972  1
  Ti  Ti65  1  0.887750  0.359928  0.664781  1
  Ti  Ti66  1  0.381150  0.861882  0.664201  1
  Ti  Ti67  1  0.894429  0.863944  0.647427  1
  Ti  Ti68  1  0.109936  0.130137  0.645973  1
  Ti  Ti69  1  0.612249  0.140068  0.664781  1
  Ti  Ti70  1  0.118849  0.638116  0.664201  1
  Ti  Ti71  1  0.605570  0.636055  0.647427  1
  Ti  Ti72  1  0.136575  0.392344  0.574063  1
  Ti  Ti73  1  0.653045  0.380214  0.576987  1
  Ti  Ti74  1  0.159627  0.878607  0.569890  1
  Ti  Ti75  1  0.615688  0.912722  0.579723  1
  Ti  Ti76  1  0.363425  0.107655  0.574063  1
  Ti  Ti77  1  0.846955  0.119785  0.576987  1
  Ti  Ti78  1  0.340373  0.621392  0.569890  1
  Ti  Ti79  1  0.884312  0.587278  0.579723  1
  Ti  Ti80  1  0.380009  0.360538  0.488692  1
  Ti  Ti81  1  0.899269  0.348479  0.489767  1
  Ti  Ti82  1  0.410008  0.852955  0.481171  1
  Ti  Ti83  1  -0.069615  -0.083862  0.482753  1
  Ti  Ti84  1  0.119991  0.139462  0.488692  1
  Ti  Ti85  1  0.600731  0.151521  0.489767  1
  Ti  Ti86  1  0.089992  0.647045  0.481171  1
  Ti  Ti87  1  0.569614  0.583861  0.482753  1
  Ti  Ti88  1  0.125137  0.875102  0.737569  1
  Ti  Ti89  1  0.625027  0.875021  0.737577  1
  Ti  Ti90  1  0.374859  0.624887  0.737572  1
  Ti  Ti91  1  0.874967  0.624968  0.737577  1
  Ti  Ti92  1  0.125147  0.374810  0.737554  1
  Ti  Ti93  1  0.624980  0.375312  0.737613  1
  Ti  Ti94  1  0.374850  0.125182  0.737553  1
  Ti  Ti95  1  0.875014  0.124675  0.737617  1
  Mo  Mo96  1  0.750000  0.750000  0.505170  1
