#======================================================================

# CRYSTAL DATA

#----------------------------------------------------------------------

data_VESTA_phase_1


_chemical_name_common                  'Optimistic_Structure'
_cell_length_a                         6.30976
_cell_length_b                         9.46464
_cell_length_c                         18.91833
_cell_angle_alpha                      90
_cell_angle_beta                       90
_cell_angle_gamma                      90
_space_group_name_H-M_alt              'P 1'
_space_group_IT_number                 1

loop_
_space_group_symop_operation_xyz
   'x, y, z'

loop_
   _atom_site_label
   _atom_site_occupancy
   _atom_site_fract_x
   _atom_site_fract_y
   _atom_site_fract_z
   _atom_site_adp_type
   _atom_site_B_iso_or_equiv
   _atom_site_type_symbol
   Ti1        1.0     0.125000      0.958333      0.500000     Biso  1.000000 Ti
   Ti2        1.0     0.625000      0.958333      0.500000     Biso  1.000000 Ti
   Ti3        1.0     0.125000      0.958333      0.658576     Biso  1.000000 Ti
   Ti4        1.0     0.625000      0.958333      0.658576     Biso  1.000000 Ti
   Ti5        1.0     0.125000      0.958333      0.817153     Biso  1.000000 Ti
   Ti6        1.0     0.625000      0.958333      0.817153     Biso  1.000000 Ti
   Ti7        1.0     0.125000      0.291667      0.500000     Biso  1.000000 Ti
   Ti8        1.0     0.625000      0.291667      0.500000     Biso  1.000000 Ti
   Ti9        1.0     0.125000      0.291667      0.658576     Biso  1.000000 Ti
   Ti10       1.0     0.625000      0.291667      0.658576     Biso  1.000000 Ti
   Ti11       1.0     0.125000      0.291667      0.817153     Biso  1.000000 Ti
   Ti12       1.0     0.625000      0.291667      0.817153     Biso  1.000000 Ti
   Ti13       1.0     0.125000      0.625000      0.500000     Biso  1.000000 Ti
   Ti14       1.0     0.625000      0.625000      0.500000     Biso  1.000000 Ti
   Ti15       1.0     0.125000      0.625000      0.658576     Biso  1.000000 Ti
   Ti16       1.0     0.625000      0.625000      0.658576     Biso  1.000000 Ti
   Ti17       1.0     0.125000      0.625000      0.817153     Biso  1.000000 Ti
   Ti18       1.0     0.625000      0.625000      0.817153     Biso  1.000000 Ti
   Ti19       1.0     0.375000      0.125000      0.579288     Biso  1.000000 Ti
   Ti20       1.0     0.875000      0.125000      0.579288     Biso  1.000000 Ti
   Ti21       1.0     0.375000      0.125000      0.737865     Biso  1.000000 Ti
   Ti22       1.0     0.875000      0.125000      0.737865     Biso  1.000000 Ti
   Ti23       1.0     0.375000      0.125000      0.896441     Biso  1.000000 Ti
   Ti24       1.0     0.875000      0.125000      0.896441     Biso  1.000000 Ti
   Ti25       1.0     0.375000      0.458333      0.579288     Biso  1.000000 Ti
   Ti26       1.0     0.875000      0.458333      0.579288     Biso  1.000000 Ti
   Ti27       1.0     0.375000      0.458333      0.737865     Biso  1.000000 Ti
   Ti28       1.0     0.875000      0.458333      0.737865     Biso  1.000000 Ti
   Ti29       1.0     0.375000      0.458333      0.896441     Biso  1.000000 Ti
   Ti30       1.0     0.875000      0.458333      0.896441     Biso  1.000000 Ti
   Ti31       1.0     0.375000      0.791667      0.579288     Biso  1.000000 Ti
   Ti32       1.0     0.875000      0.791667      0.579288     Biso  1.000000 Ti
   Ti33       1.0     0.375000      0.791667      0.737865     Biso  1.000000 Ti
   Ti34       1.0     0.875000      0.791667      0.737865     Biso  1.000000 Ti
   Ti35       1.0     0.375000      0.791667      0.896441     Biso  1.000000 Ti
   Ti36       1.0     0.875000      0.791667      0.896441     Biso  1.000000 Ti
   Ti37       1.0     0.125000      0.625000      0.356797     Biso  1.000000 Ti
   Ti38       1.0     0.625000      0.625000      0.356797     Biso  1.000000 Ti
   Ti39       1.0     0.125000      0.625000      0.118932     Biso  1.000000 Ti
   Ti40       1.0     0.625000      0.625000      0.118932     Biso  1.000000 Ti
   Ti41       1.0     0.125000      0.125000      0.356797     Biso  1.000000 Ti
   Ti42       1.0     0.625000      0.125000      0.356797     Biso  1.000000 Ti
   Ti43       1.0     0.125000      0.125000      0.118932     Biso  1.000000 Ti
   Ti44       1.0     0.625000      0.125000      0.118932     Biso  1.000000 Ti
   Ti45       1.0     0.125000      0.375000      0.039644     Biso  1.000000 Ti
   Ti46       1.0     0.625000      0.375000      0.039644     Biso  1.000000 Ti
   Ti47       1.0     0.125000      0.875000      0.039644     Biso  1.000000 Ti
   Ti48       1.0     0.625000      0.875000      0.039644     Biso  1.000000 Ti
   Ti49       1.0     0.125000      0.375000      0.277509     Biso  1.000000 Ti
   Ti50       1.0     0.625000      0.375000      0.277509     Biso  1.000000 Ti
   Ti51       1.0     0.125000      0.875000      0.277509     Biso  1.000000 Ti
   Ti52       1.0     0.625000      0.875000      0.277509     Biso  1.000000 Ti
   Ti53       1.0     0.375000      0.875000      0.158576     Biso  1.000000 Ti
   Ti54       1.0     0.875000      0.875000      0.158576     Biso  1.000000 Ti
   Ti55       1.0     0.374999      0.375000      0.158576     Biso  1.000000 Ti
   Ti56       1.0     0.874999      0.375000      0.158576     Biso  1.000000 Ti
   Ti57       1.0     0.375000      0.375000      0.396441     Biso  1.000000 Ti
   Ti58       1.0     0.875000      0.375000      0.396441     Biso  1.000000 Ti
   Ti59       1.0     0.375000      0.875000      0.396441     Biso  1.000000 Ti
   Ti60       1.0     0.875000      0.875000      0.396441     Biso  1.000000 Ti
   Ti61       1.0     0.375000      0.625000      0.237864     Biso  1.000000 Ti
   Ti62       1.0     0.875000      0.625000      0.237864     Biso  1.000000 Ti
   Ti63       1.0     0.375000      0.625000     -0.000000     Biso  1.000000 Ti
   Ti64       1.0     0.875000      0.625000     -0.000000     Biso  1.000000 Ti
   Ti65       1.0     0.375000      0.125000      0.237865     Biso  1.000000 Ti
   Ti66       1.0     0.875000      0.125000      0.237865     Biso  1.000000 Ti
   Ti67       1.0     0.375000      0.125000     -0.000000     Biso  1.000000 Ti
   Ti68       1.0     0.875000      0.125000     -0.000000     Biso  1.000000 Ti
