# generated using pymatgen
data_Ti96Sn
_symmetry_space_group_name_H-M   'P 1'
_cell_length_a   9.51302000
_cell_length_b   9.35086000
_cell_length_c   18.54723000
_cell_angle_alpha   90.00000000
_cell_angle_beta   90.00000000
_cell_angle_gamma   90.00000000
_symmetry_Int_Tables_number   1
_chemical_formula_structural   Ti96Sn
_chemical_formula_sum   'Ti96 Sn1'
_cell_volume   1649.86732743
_cell_formula_units_Z   1
loop_
 _symmetry_equiv_pos_site_id
 _symmetry_equiv_pos_as_xyz
  1  'x, y, z'
loop_
 _atom_site_type_symbol
 _atom_site_label
 _atom_site_symmetry_multiplicity
 _atom_site_fract_x
 _atom_site_fract_y
 _atom_site_fract_z
 _atom_site_occupancy
  Ti  Ti0  1  0.148596  0.375455  0.402611  1
  Ti  Ti1  1  0.643479  0.335471  0.406850  1
  Ti  Ti2  1  0.116777  0.855498  0.393551  1
  Ti  Ti3  1  0.688803  0.872587  0.388664  1
  Ti  Ti4  1  0.161975  0.369306  0.234777  1
  Ti  Ti5  1  0.658904  0.375922  0.234597  1
  Ti  Ti6  1  0.168218  0.874900  0.234976  1
  Ti  Ti7  1  0.652433  0.870380  0.236121  1
  Ti  Ti8  1  0.166666  0.375000  0.077689  1
  Ti  Ti9  1  0.666666  0.375000  0.077689  1
  Ti  Ti10  1  0.166666  0.875000  0.077689  1
  Ti  Ti11  1  0.666666  0.875000  0.077689  1
  Ti  Ti12  1  0.405909  0.382299  0.314093  1
  Ti  Ti13  1  0.896080  0.374887  0.321297  1
  Ti  Ti14  1  0.398846  0.896511  0.334621  1
  Ti  Ti15  1  0.914847  0.887380  0.303800  1
  Ti  Ti16  1  0.416667  0.375000  0.155379  1
  Ti  Ti17  1  0.916667  0.375000  0.155379  1
  Ti  Ti18  1  0.416667  0.875000  0.155379  1
  Ti  Ti19  1  0.916667  0.875000  0.155379  1
  Ti  Ti20  1  0.416667  0.375000  -0.000000  1
  Ti  Ti21  1  0.916667  0.375000  -0.000000  1
  Ti  Ti22  1  0.416667  0.875000  -0.000000  1
  Ti  Ti23  1  0.916667  0.875000  -0.000000  1
  Ti  Ti24  1  0.103920  0.125113  0.321296  1
  Ti  Ti25  1  0.594091  0.117701  0.314092  1
  Ti  Ti26  1  0.085153  0.612620  0.303799  1
  Ti  Ti27  1  0.601154  0.603489  0.334620  1
  Ti  Ti28  1  0.083333  0.125000  0.155379  1
  Ti  Ti29  1  0.583333  0.125000  0.155379  1
  Ti  Ti30  1  0.083333  0.625000  0.155379  1
  Ti  Ti31  1  0.583333  0.625000  0.155379  1
  Ti  Ti32  1  0.083333  0.125000  -0.000000  1
  Ti  Ti33  1  0.583333  0.125000  -0.000000  1
  Ti  Ti34  1  0.083333  0.625000  -0.000000  1
  Ti  Ti35  1  0.583333  0.625000  -0.000000  1
  Ti  Ti36  1  0.356520  0.164529  0.406850  1
  Ti  Ti37  1  0.851403  0.124545  0.402611  1
  Ti  Ti38  1  0.311196  0.627413  0.388664  1
  Ti  Ti39  1  0.883222  0.644502  0.393551  1
  Ti  Ti40  1  0.341095  0.124078  0.234597  1
  Ti  Ti41  1  0.838024  0.130694  0.234777  1
  Ti  Ti42  1  0.347566  0.629620  0.236121  1
  Ti  Ti43  1  0.831781  0.625100  0.234976  1
  Ti  Ti44  1  0.333333  0.125000  0.077689  1
  Ti  Ti45  1  0.833333  0.125000  0.077689  1
  Ti  Ti46  1  0.333333  0.625000  0.077689  1
  Ti  Ti47  1  0.833333  0.625000  0.077689  1
  Ti  Ti48  1  0.375000  0.375000  0.823738  1
  Ti  Ti49  1  0.875000  0.375000  0.823738  1
  Ti  Ti50  1  0.375000  0.875000  0.823738  1
  Ti  Ti51  1  0.875000  0.875000  0.823738  1
  Ti  Ti52  1  0.125000  0.125000  0.823738  1
  Ti  Ti53  1  0.625000  0.125000  0.823738  1
  Ti  Ti54  1  0.125000  0.625000  0.823738  1
  Ti  Ti55  1  0.625000  0.625000  0.823738  1
  Ti  Ti56  1  0.125000  0.375000  0.910084  1
  Ti  Ti57  1  0.625000  0.375000  0.910084  1
  Ti  Ti58  1  0.125000  0.875000  0.910084  1
  Ti  Ti59  1  0.625000  0.875000  0.910084  1
  Ti  Ti60  1  0.375000  0.125000  0.910084  1
  Ti  Ti61  1  0.875000  0.125000  0.910084  1
  Ti  Ti62  1  0.375000  0.625000  0.910084  1
  Ti  Ti63  1  0.875000  0.625000  0.910084  1
  Ti  Ti64  1  0.394834  0.384733  0.661367  1
  Ti  Ti65  1  0.888812  0.376035  0.644685  1
  Ti  Ti66  1  0.387526  0.895275  0.642343  1
  Ti  Ti67  1  0.881754  0.885161  0.673225  1
  Ti  Ti68  1  0.111188  0.123965  0.644685  1
  Ti  Ti69  1  0.605166  0.115267  0.661367  1
  Ti  Ti70  1  0.118246  0.614839  0.673225  1
  Ti  Ti71  1  0.612474  0.604725  0.642343  1
  Ti  Ti72  1  0.155125  0.380133  0.573799  1
  Ti  Ti73  1  0.634120  0.334049  0.567798  1
  Ti  Ti74  1  0.114454  0.853317  0.586525  1
  Ti  Ti75  1  0.663606  0.867511  0.582083  1
  Ti  Ti76  1  0.365880  0.165951  0.567798  1
  Ti  Ti77  1  0.844875  0.119867  0.573799  1
  Ti  Ti78  1  0.336394  0.632489  0.582083  1
  Ti  Ti79  1  0.885546  0.646683  0.586525  1
  Ti  Ti80  1  0.412489  0.426943  0.483623  1
  Ti  Ti81  1  0.903190  0.365531  0.488140  1
  Ti  Ti82  1  0.296279  0.934968  0.490604  1
  Ti  Ti83  1  0.904985  0.894833  0.490392  1
  Ti  Ti84  1  0.096810  0.134469  0.488140  1
  Ti  Ti85  1  0.587511  0.073057  0.483623  1
  Ti  Ti86  1  0.095015  0.605167  0.490392  1
  Ti  Ti87  1  0.703721  0.565032  0.490604  1
  Ti  Ti88  1  0.125000  0.875000  0.737395  1
  Ti  Ti89  1  0.625000  0.875000  0.737395  1
  Ti  Ti90  1  0.375000  0.625000  0.737395  1
  Ti  Ti91  1  0.875000  0.625000  0.737395  1
  Ti  Ti92  1  0.125000  0.375000  0.737395  1
  Ti  Ti93  1  0.625000  0.375000  0.737395  1
  Ti  Ti94  1  0.375000  0.125000  0.737395  1
  Ti  Ti95  1  0.875000  0.125000  0.737395  1
  Sn  Sn96  1  0.500000  0.750000  0.475429  1
