# generated using pymatgen
data_Ti96Sn
_symmetry_space_group_name_H-M   'P 1'
_cell_length_a   9.51302000
_cell_length_b   9.35086000
_cell_length_c   18.54723000
_cell_angle_alpha   90.00000000
_cell_angle_beta   90.00000000
_cell_angle_gamma   90.00000000
_symmetry_Int_Tables_number   1
_chemical_formula_structural   Ti96Sn
_chemical_formula_sum   'Ti96 Sn1'
_cell_volume   1649.86732743
_cell_formula_units_Z   1
loop_
 _symmetry_equiv_pos_site_id
 _symmetry_equiv_pos_as_xyz
  1  'x, y, z'
loop_
 _atom_site_type_symbol
 _atom_site_label
 _atom_site_symmetry_multiplicity
 _atom_site_fract_x
 _atom_site_fract_y
 _atom_site_fract_z
 _atom_site_occupancy
  Ti  Ti0  1  0.148509  0.380689  0.404065  1
  Ti  Ti1  1  0.645516  0.329744  0.410473  1
  Ti  Ti2  1  0.117753  0.851462  0.408523  1
  Ti  Ti3  1  0.690068  0.879628  0.401625  1
  Ti  Ti4  1  0.152619  0.365268  0.238113  1
  Ti  Ti5  1  0.659035  0.370980  0.234625  1
  Ti  Ti6  1  0.163472  0.869788  0.233263  1
  Ti  Ti7  1  0.671029  0.890797  0.232756  1
  Ti  Ti8  1  0.166653  0.375059  0.077416  1
  Ti  Ti9  1  0.666709  0.374988  0.077372  1
  Ti  Ti10  1  0.166628  0.875029  0.077460  1
  Ti  Ti11  1  0.666576  0.874958  0.077530  1
  Ti  Ti12  1  0.410351  0.383091  0.318263  1
  Ti  Ti13  1  0.897512  0.371053  0.324046  1
  Ti  Ti14  1  0.352916  0.929618  0.336067  1
  Ti  Ti15  1  0.918055  0.883804  0.309990  1
  Ti  Ti16  1  0.416744  0.375109  0.154916  1
  Ti  Ti17  1  0.916755  0.374744  0.154839  1
  Ti  Ti18  1  0.416619  0.874966  0.155345  1
  Ti  Ti19  1  0.916717  0.875205  0.154777  1
  Ti  Ti20  1  0.416664  0.375047  -0.000120  1
  Ti  Ti21  1  0.916637  0.374974  -0.000184  1
  Ti  Ti22  1  0.416659  0.874964  0.000007  1
  Ti  Ti23  1  0.916629  0.875005  -0.000164  1
  Ti  Ti24  1  0.102488  0.128950  0.324044  1
  Ti  Ti25  1  0.589649  0.116912  0.318262  1
  Ti  Ti26  1  0.081944  0.616199  0.309989  1
  Ti  Ti27  1  0.647084  0.570384  0.336066  1
  Ti  Ti28  1  0.083243  0.125295  0.154835  1
  Ti  Ti29  1  0.583256  0.124928  0.154917  1
  Ti  Ti30  1  0.083283  0.624836  0.154779  1
  Ti  Ti31  1  0.583383  0.625050  0.155345  1
  Ti  Ti32  1  0.083365  0.125036  -0.000186  1
  Ti  Ti33  1  0.583337  0.124970  -0.000119  1
  Ti  Ti34  1  0.083372  0.625007  -0.000163  1
  Ti  Ti35  1  0.583344  0.625036  0.000006  1
  Ti  Ti36  1  0.354483  0.170257  0.410473  1
  Ti  Ti37  1  0.851490  0.119312  0.404065  1
  Ti  Ti38  1  0.309931  0.620373  0.401625  1
  Ti  Ti39  1  0.882246  0.648538  0.408523  1
  Ti  Ti40  1  0.340964  0.129027  0.234624  1
  Ti  Ti41  1  0.847380  0.134740  0.238112  1
  Ti  Ti42  1  0.328970  0.609211  0.232757  1
  Ti  Ti43  1  0.836527  0.630222  0.233263  1
  Ti  Ti44  1  0.333291  0.125041  0.077372  1
  Ti  Ti45  1  0.833347  0.124970  0.077417  1
  Ti  Ti46  1  0.333422  0.625066  0.077529  1
  Ti  Ti47  1  0.833372  0.624997  0.077460  1
  Ti  Ti48  1  0.375066  0.375119  0.823835  1
  Ti  Ti49  1  0.874925  0.374979  0.823890  1
  Ti  Ti50  1  0.375094  0.874917  0.823760  1
  Ti  Ti51  1  0.874930  0.874984  0.823834  1
  Ti  Ti52  1  0.125075  0.124991  0.823889  1
  Ti  Ti53  1  0.624939  0.124868  0.823836  1
  Ti  Ti54  1  0.125073  0.624996  0.823835  1
  Ti  Ti55  1  0.624911  0.625065  0.823760  1
  Ti  Ti56  1  0.125086  0.375109  0.910145  1
  Ti  Ti57  1  0.624978  0.375125  0.910184  1
  Ti  Ti58  1  0.125135  0.874930  0.910194  1
  Ti  Ti59  1  0.624944  0.874895  0.910258  1
  Ti  Ti60  1  0.375029  0.124854  0.910186  1
  Ti  Ti61  1  0.874921  0.124876  0.910146  1
  Ti  Ti62  1  0.375060  0.625075  0.910258  1
  Ti  Ti63  1  0.874870  0.625046  0.910195  1
  Ti  Ti64  1  0.394523  0.386556  0.658147  1
  Ti  Ti65  1  0.893557  0.380110  0.650670  1
  Ti  Ti66  1  0.392822  0.890330  0.647529  1
  Ti  Ti67  1  0.885866  0.886891  0.665268  1
  Ti  Ti68  1  0.106441  0.119883  0.650670  1
  Ti  Ti69  1  0.605475  0.113437  0.658147  1
  Ti  Ti70  1  0.114131  0.613100  0.665268  1
  Ti  Ti71  1  0.607178  0.609664  0.647530  1
  Ti  Ti72  1  0.150387  0.368379  0.574485  1
  Ti  Ti73  1  0.642607  0.346422  0.574028  1
  Ti  Ti74  1  0.130545  0.859467  0.584697  1
  Ti  Ti75  1  0.655739  0.863667  0.576324  1
  Ti  Ti76  1  0.357392  0.153576  0.574028  1
  Ti  Ti77  1  0.849612  0.131619  0.574484  1
  Ti  Ti78  1  0.344260  0.636331  0.576324  1
  Ti  Ti79  1  0.869454  0.640530  0.584697  1
  Ti  Ti80  1  0.405953  0.407731  0.491131  1
  Ti  Ti81  1  0.899551  0.371150  0.486336  1
  Ti  Ti82  1  0.340720  0.916203  0.492287  1
  Ti  Ti83  1  0.905762  0.895069  0.498919  1
  Ti  Ti84  1  0.100449  0.128850  0.486336  1
  Ti  Ti85  1  0.594046  0.092269  0.491131  1
  Ti  Ti86  1  0.094237  0.604930  0.498919  1
  Ti  Ti87  1  0.659280  0.583797  0.492287  1
  Ti  Ti88  1  0.125059  0.875082  0.737762  1
  Ti  Ti89  1  0.624826  0.874947  0.737542  1
  Ti  Ti90  1  0.375170  0.625033  0.737538  1
  Ti  Ti91  1  0.874930  0.624883  0.737764  1
  Ti  Ti92  1  0.124923  0.374958  0.737740  1
  Ti  Ti93  1  0.624947  0.374925  0.737713  1
  Ti  Ti94  1  0.375043  0.125045  0.737712  1
  Ti  Ti95  1  0.875068  0.125012  0.737740  1
  Sn  Sn96  1  0.500000  0.750000  0.382839  1
