# generated using pymatgen
data_Ti96Al
_symmetry_space_group_name_H-M   'P 1'
_cell_length_a   9.51302000
_cell_length_b   9.35086000
_cell_length_c   18.54723000
_cell_angle_alpha   90.00000000
_cell_angle_beta   90.00000000
_cell_angle_gamma   90.00000000
_symmetry_Int_Tables_number   1
_chemical_formula_structural   Ti96Al
_chemical_formula_sum   'Ti96 Al1'
_cell_volume   1649.86732743
_cell_formula_units_Z   1
loop_
 _symmetry_equiv_pos_site_id
 _symmetry_equiv_pos_as_xyz
  1  'x, y, z'
loop_
 _atom_site_type_symbol
 _atom_site_label
 _atom_site_symmetry_multiplicity
 _atom_site_fract_x
 _atom_site_fract_y
 _atom_site_fract_z
 _atom_site_occupancy
  Ti  Ti0  1  0.133732  0.361669  0.404712  1
  Ti  Ti1  1  0.655136  0.362791  0.394751  1
  Ti  Ti2  1  0.166326  0.864961  0.399028  1
  Ti  Ti3  1  0.677685  0.907460  0.399150  1
  Ti  Ti4  1  0.161294  0.377132  0.237606  1
  Ti  Ti5  1  0.662072  0.374096  0.233001  1
  Ti  Ti6  1  0.162922  0.875740  0.235090  1
  Ti  Ti7  1  0.663077  0.872679  0.235980  1
  Ti  Ti8  1  0.166664  0.375028  0.077669  1
  Ti  Ti9  1  0.666670  0.375000  0.077696  1
  Ti  Ti10  1  0.166691  0.875010  0.077720  1
  Ti  Ti11  1  0.666648  0.875003  0.077742  1
  Ti  Ti12  1  0.406885  0.374552  0.312557  1
  Ti  Ti13  1  0.907886  0.375863  0.315009  1
  Ti  Ti14  1  0.411172  0.881016  0.316562  1
  Ti  Ti15  1  0.913672  0.876676  0.317926  1
  Ti  Ti16  1  0.416687  0.375007  0.155306  1
  Ti  Ti17  1  0.916640  0.374984  0.155258  1
  Ti  Ti18  1  0.416662  0.875087  0.155390  1
  Ti  Ti19  1  0.916684  0.874972  0.155279  1
  Ti  Ti20  1  0.416690  0.375040  0.000093  1
  Ti  Ti21  1  0.916615  0.375034  0.000057  1
  Ti  Ti22  1  0.416685  0.874970  0.000160  1
  Ti  Ti23  1  0.916644  0.874975  0.000093  1
  Ti  Ti24  1  0.092114  0.124138  0.315008  1
  Ti  Ti25  1  0.593115  0.125449  0.312556  1
  Ti  Ti26  1  0.086328  0.623325  0.317925  1
  Ti  Ti27  1  0.588828  0.618985  0.316561  1
  Ti  Ti28  1  0.083360  0.125033  0.155258  1
  Ti  Ti29  1  0.583313  0.125009  0.155306  1
  Ti  Ti30  1  0.083316  0.625043  0.155278  1
  Ti  Ti31  1  0.583339  0.624923  0.155390  1
  Ti  Ti32  1  0.083386  0.124973  0.000059  1
  Ti  Ti33  1  0.583311  0.124966  0.000095  1
  Ti  Ti34  1  0.083358  0.625031  0.000092  1
  Ti  Ti35  1  0.583316  0.625028  0.000158  1
  Ti  Ti36  1  0.344863  0.137209  0.394751  1
  Ti  Ti37  1  0.866267  0.138331  0.404712  1
  Ti  Ti38  1  0.322314  0.592540  0.399150  1
  Ti  Ti39  1  0.833673  0.635039  0.399028  1
  Ti  Ti40  1  0.337927  0.125907  0.233001  1
  Ti  Ti41  1  0.838705  0.122871  0.237606  1
  Ti  Ti42  1  0.336922  0.627324  0.235980  1
  Ti  Ti43  1  0.837078  0.624264  0.235090  1
  Ti  Ti44  1  0.333330  0.125012  0.077697  1
  Ti  Ti45  1  0.833336  0.124986  0.077670  1
  Ti  Ti46  1  0.333351  0.625007  0.077742  1
  Ti  Ti47  1  0.833308  0.625000  0.077720  1
  Ti  Ti48  1  0.374980  0.375081  0.823958  1
  Ti  Ti49  1  0.874924  0.375073  0.823943  1
  Ti  Ti50  1  0.375004  0.874901  0.823957  1
  Ti  Ti51  1  0.875122  0.874995  0.823929  1
  Ti  Ti52  1  0.125078  0.124922  0.823947  1
  Ti  Ti53  1  0.625024  0.124922  0.823960  1
  Ti  Ti54  1  0.124889  0.625006  0.823930  1
  Ti  Ti55  1  0.625001  0.625081  0.823954  1
  Ti  Ti56  1  0.124961  0.375029  0.910205  1
  Ti  Ti57  1  0.624995  0.375033  0.910203  1
  Ti  Ti58  1  0.125021  0.874955  0.910219  1
  Ti  Ti59  1  0.624999  0.874980  0.910234  1
  Ti  Ti60  1  0.375011  0.124968  0.910207  1
  Ti  Ti61  1  0.875044  0.124971  0.910206  1
  Ti  Ti62  1  0.375005  0.625015  0.910232  1
  Ti  Ti63  1  0.874984  0.625044  0.910216  1
  Ti  Ti64  1  0.388448  0.397270  0.656497  1
  Ti  Ti65  1  0.893643  0.381371  0.649231  1
  Ti  Ti66  1  0.382523  0.884100  0.658639  1
  Ti  Ti67  1  0.888284  0.882846  0.661360  1
  Ti  Ti68  1  0.106357  0.118624  0.649232  1
  Ti  Ti69  1  0.611549  0.102724  0.656498  1
  Ti  Ti70  1  0.111713  0.617149  0.661360  1
  Ti  Ti71  1  0.617474  0.615896  0.658638  1
  Ti  Ti72  1  0.143647  0.380112  0.567750  1
  Ti  Ti73  1  0.643379  0.346106  0.584692  1
  Ti  Ti74  1  0.138602  0.855736  0.576553  1
  Ti  Ti75  1  0.656746  0.875331  0.564916  1
  Ti  Ti76  1  0.356620  0.153891  0.584693  1
  Ti  Ti77  1  0.856352  0.119886  0.567750  1
  Ti  Ti78  1  0.343253  0.624668  0.564915  1
  Ti  Ti79  1  0.861398  0.644263  0.576552  1
  Ti  Ti80  1  0.402140  0.368274  0.487583  1
  Ti  Ti81  1  0.886719  0.378306  0.492433  1
  Ti  Ti82  1  0.361686  0.941549  0.497225  1
  Ti  Ti83  1  0.915818  0.878977  0.480599  1
  Ti  Ti84  1  0.113281  0.121694  0.492434  1
  Ti  Ti85  1  0.597859  0.131725  0.487583  1
  Ti  Ti86  1  0.084181  0.621022  0.480599  1
  Ti  Ti87  1  0.638314  0.558451  0.497224  1
  Ti  Ti88  1  0.125290  0.874721  0.737729  1
  Ti  Ti89  1  0.625202  0.874690  0.737820  1
  Ti  Ti90  1  0.374785  0.625284  0.737815  1
  Ti  Ti91  1  0.874702  0.625261  0.737727  1
  Ti  Ti92  1  0.124534  0.374951  0.737780  1
  Ti  Ti93  1  0.625145  0.375203  0.737758  1
  Ti  Ti94  1  0.374847  0.124777  0.737765  1
  Ti  Ti95  1  0.875456  0.125027  0.737775  1
  Al  Al96  1  0.500000  0.750000  0.466696  1
