# generated using pymatgen
data_Ti96Sn
_symmetry_space_group_name_H-M   'P 1'
_cell_length_a   9.51302000
_cell_length_b   9.35086000
_cell_length_c   18.54723000
_cell_angle_alpha   90.00000000
_cell_angle_beta   90.00000000
_cell_angle_gamma   90.00000000
_symmetry_Int_Tables_number   1
_chemical_formula_structural   Ti96Sn
_chemical_formula_sum   'Ti96 Sn1'
_cell_volume   1649.86732743
_cell_formula_units_Z   1
loop_
 _symmetry_equiv_pos_site_id
 _symmetry_equiv_pos_as_xyz
  1  'x, y, z'
loop_
 _atom_site_type_symbol
 _atom_site_label
 _atom_site_symmetry_multiplicity
 _atom_site_fract_x
 _atom_site_fract_y
 _atom_site_fract_z
 _atom_site_occupancy
  Ti  Ti0  1  0.147938  0.377895  0.403621  1
  Ti  Ti1  1  0.644824  0.332003  0.408871  1
  Ti  Ti2  1  0.116701  0.852940  0.402197  1
  Ti  Ti3  1  0.692122  0.878968  0.392560  1
  Ti  Ti4  1  0.156207  0.366800  0.236703  1
  Ti  Ti5  1  0.659343  0.372731  0.234575  1
  Ti  Ti6  1  0.165821  0.871736  0.233974  1
  Ti  Ti7  1  0.662321  0.882614  0.234016  1
  Ti  Ti8  1  0.166621  0.374997  0.077524  1
  Ti  Ti9  1  0.666715  0.374963  0.077471  1
  Ti  Ti10  1  0.166807  0.874983  0.077519  1
  Ti  Ti11  1  0.666650  0.875071  0.077501  1
  Ti  Ti12  1  0.408700  0.382492  0.316363  1
  Ti  Ti13  1  0.896580  0.372908  0.322948  1
  Ti  Ti14  1  0.374030  0.913153  0.334389  1
  Ti  Ti15  1  0.917691  0.885683  0.307169  1
  Ti  Ti16  1  0.416715  0.374832  0.155072  1
  Ti  Ti17  1  0.916600  0.374864  0.155053  1
  Ti  Ti18  1  0.416613  0.874933  0.155322  1
  Ti  Ti19  1  0.916860  0.875262  0.154996  1
  Ti  Ti20  1  0.416668  0.375013  -0.000099  1
  Ti  Ti21  1  0.916635  0.374986  -0.000118  1
  Ti  Ti22  1  0.416697  0.874978  -0.000036  1
  Ti  Ti23  1  0.916683  0.875012  -0.000128  1
  Ti  Ti24  1  0.103420  0.127094  0.322947  1
  Ti  Ti25  1  0.591300  0.117510  0.316362  1
  Ti  Ti26  1  0.082309  0.614319  0.307168  1
  Ti  Ti27  1  0.625970  0.586849  0.334388  1
  Ti  Ti28  1  0.083400  0.125157  0.155051  1
  Ti  Ti29  1  0.583288  0.125191  0.155070  1
  Ti  Ti30  1  0.083138  0.624764  0.154998  1
  Ti  Ti31  1  0.583388  0.625079  0.155321  1
  Ti  Ti32  1  0.083368  0.125019  -0.000119  1
  Ti  Ti33  1  0.583332  0.124996  -0.000098  1
  Ti  Ti34  1  0.083316  0.625000  -0.000128  1
  Ti  Ti35  1  0.583305  0.625029  -0.000037  1
  Ti  Ti36  1  0.355175  0.167998  0.408871  1
  Ti  Ti37  1  0.852061  0.122105  0.403621  1
  Ti  Ti38  1  0.307877  0.621033  0.392560  1
  Ti  Ti39  1  0.883298  0.647061  0.402197  1
  Ti  Ti40  1  0.340657  0.127274  0.234574  1
  Ti  Ti41  1  0.843792  0.133205  0.236703  1
  Ti  Ti42  1  0.337678  0.617391  0.234017  1
  Ti  Ti43  1  0.834178  0.628270  0.233973  1
  Ti  Ti44  1  0.333285  0.125053  0.077471  1
  Ti  Ti45  1  0.833379  0.125019  0.077524  1
  Ti  Ti46  1  0.333348  0.624948  0.077501  1
  Ti  Ti47  1  0.833193  0.625036  0.077518  1
  Ti  Ti48  1  0.374977  0.375096  0.823829  1
  Ti  Ti49  1  0.874960  0.375018  0.823931  1
  Ti  Ti50  1  0.375043  0.874913  0.823774  1
  Ti  Ti51  1  0.875011  0.874996  0.823740  1
  Ti  Ti52  1  0.125048  0.124971  0.823932  1
  Ti  Ti53  1  0.625025  0.124891  0.823830  1
  Ti  Ti54  1  0.124994  0.624992  0.823742  1
  Ti  Ti55  1  0.624969  0.625083  0.823773  1
  Ti  Ti56  1  0.125064  0.375113  0.910082  1
  Ti  Ti57  1  0.624965  0.375106  0.910055  1
  Ti  Ti58  1  0.125093  0.874921  0.910044  1
  Ti  Ti59  1  0.624981  0.874944  0.909996  1
  Ti  Ti60  1  0.375044  0.124888  0.910056  1
  Ti  Ti61  1  0.874943  0.124881  0.910084  1
  Ti  Ti62  1  0.375025  0.625055  0.909997  1
  Ti  Ti63  1  0.874911  0.625075  0.910043  1
  Ti  Ti64  1  0.394511  0.385811  0.659705  1
  Ti  Ti65  1  0.891604  0.378327  0.648454  1
  Ti  Ti66  1  0.390840  0.892198  0.645655  1
  Ti  Ti67  1  0.884113  0.886192  0.668697  1
  Ti  Ti68  1  0.108393  0.121666  0.648454  1
  Ti  Ti69  1  0.605486  0.114183  0.659704  1
  Ti  Ti70  1  0.115885  0.613799  0.668698  1
  Ti  Ti71  1  0.609158  0.607795  0.645656  1
  Ti  Ti72  1  0.152137  0.372863  0.574390  1
  Ti  Ti73  1  0.638978  0.340928  0.571824  1
  Ti  Ti74  1  0.123618  0.856774  0.585824  1
  Ti  Ti75  1  0.659250  0.865647  0.578911  1
  Ti  Ti76  1  0.361021  0.159070  0.571824  1
  Ti  Ti77  1  0.847862  0.127134  0.574390  1
  Ti  Ti78  1  0.340749  0.634350  0.578911  1
  Ti  Ti79  1  0.876382  0.643223  0.585824  1
  Ti  Ti80  1  0.408025  0.414896  0.487868  1
  Ti  Ti81  1  0.901297  0.368699  0.487371  1
  Ti  Ti82  1  0.319046  0.926894  0.492331  1
  Ti  Ti83  1  0.905516  0.895366  0.495519  1
  Ti  Ti84  1  0.098702  0.131300  0.487371  1
  Ti  Ti85  1  0.591975  0.085103  0.487867  1
  Ti  Ti86  1  0.094483  0.604633  0.495519  1
  Ti  Ti87  1  0.680953  0.573105  0.492332  1
  Ti  Ti88  1  0.124977  0.874851  0.737686  1
  Ti  Ti89  1  0.625337  0.875064  0.737524  1
  Ti  Ti90  1  0.374657  0.624918  0.737529  1
  Ti  Ti91  1  0.875009  0.625121  0.737683  1
  Ti  Ti92  1  0.125073  0.375086  0.737749  1
  Ti  Ti93  1  0.624864  0.374930  0.737766  1
  Ti  Ti94  1  0.375122  0.125031  0.737763  1
  Ti  Ti95  1  0.874913  0.124879  0.737752  1
  Sn  Sn96  1  0.500000  0.750000  0.431233  1
