# generated using pymatgen
data_Ti
_symmetry_space_group_name_H-M   'P 1'
_cell_length_a   9.51302000
_cell_length_b   9.35086000
_cell_length_c   18.54723000
_cell_angle_alpha   90.00000000
_cell_angle_beta   90.00000000
_cell_angle_gamma   90.00000000
_symmetry_Int_Tables_number   1
_chemical_formula_structural   Ti
_chemical_formula_sum   Ti97
_cell_volume   1649.86732743
_cell_formula_units_Z   97
loop_
 _symmetry_equiv_pos_site_id
 _symmetry_equiv_pos_as_xyz
  1  'x, y, z'
loop_
 _atom_site_type_symbol
 _atom_site_label
 _atom_site_symmetry_multiplicity
 _atom_site_fract_x
 _atom_site_fract_y
 _atom_site_fract_z
 _atom_site_occupancy
  Ti  Ti0  1  0.141981  0.378855  0.408582  1
  Ti  Ti1  1  0.649208  0.366150  0.413989  1
  Ti  Ti2  1  0.166022  0.883582  0.400272  1
  Ti  Ti3  1  0.633916  0.917763  0.424198  1
  Ti  Ti4  1  0.156044  0.379361  0.238231  1
  Ti  Ti5  1  0.658188  0.370652  0.233041  1
  Ti  Ti6  1  0.164600  0.877740  0.238478  1
  Ti  Ti7  1  0.651204  0.892078  0.228923  1
  Ti  Ti8  1  0.166666  0.375000  0.077689  1
  Ti  Ti9  1  0.666666  0.375000  0.077689  1
  Ti  Ti10  1  0.166666  0.875000  0.077689  1
  Ti  Ti11  1  0.666666  0.875000  0.077689  1
  Ti  Ti12  1  0.394862  0.357956  0.322342  1
  Ti  Ti13  1  0.898965  0.370861  0.321053  1
  Ti  Ti14  1  0.423622  0.859764  0.322881  1
  Ti  Ti15  1  0.929094  0.916351  0.322807  1
  Ti  Ti16  1  0.416667  0.375000  0.155379  1
  Ti  Ti17  1  0.916667  0.375000  0.155379  1
  Ti  Ti18  1  0.416667  0.875000  0.155379  1
  Ti  Ti19  1  0.916667  0.875000  0.155379  1
  Ti  Ti20  1  0.416667  0.375000  0.000000  1
  Ti  Ti21  1  0.916667  0.375000  0.000000  1
  Ti  Ti22  1  0.416667  0.875000  0.000000  1
  Ti  Ti23  1  0.916667  0.875000  0.000000  1
  Ti  Ti24  1  0.105138  0.142044  0.322341  1
  Ti  Ti25  1  0.601035  0.129139  0.321052  1
  Ti  Ti26  1  0.076378  0.640236  0.322880  1
  Ti  Ti27  1  0.570906  0.583649  0.322806  1
  Ti  Ti28  1  0.083333  0.125000  0.155379  1
  Ti  Ti29  1  0.583333  0.125000  0.155379  1
  Ti  Ti30  1  0.083333  0.625000  0.155379  1
  Ti  Ti31  1  0.583333  0.625000  0.155379  1
  Ti  Ti32  1  0.083333  0.125000  0.000000  1
  Ti  Ti33  1  0.583333  0.125000  0.000000  1
  Ti  Ti34  1  0.083333  0.625000  0.000000  1
  Ti  Ti35  1  0.583333  0.625000  0.000000  1
  Ti  Ti36  1  0.358018  0.121145  0.408582  1
  Ti  Ti37  1  0.850791  0.133850  0.413989  1
  Ti  Ti38  1  0.333977  0.616418  0.400272  1
  Ti  Ti39  1  0.866083  0.582237  0.424198  1
  Ti  Ti40  1  0.343955  0.120639  0.238231  1
  Ti  Ti41  1  0.841811  0.129348  0.233041  1
  Ti  Ti42  1  0.335399  0.622260  0.238478  1
  Ti  Ti43  1  0.848795  0.607922  0.228923  1
  Ti  Ti44  1  0.333333  0.125000  0.077689  1
  Ti  Ti45  1  0.833333  0.125000  0.077689  1
  Ti  Ti46  1  0.333333  0.625000  0.077689  1
  Ti  Ti47  1  0.833333  0.625000  0.077689  1
  Ti  Ti48  1  0.375000  0.375000  0.823738  1
  Ti  Ti49  1  0.875000  0.375000  0.823738  1
  Ti  Ti50  1  0.375000  0.875000  0.823738  1
  Ti  Ti51  1  0.875000  0.875000  0.823738  1
  Ti  Ti52  1  0.125000  0.125000  0.823738  1
  Ti  Ti53  1  0.625000  0.125000  0.823738  1
  Ti  Ti54  1  0.125000  0.625000  0.823738  1
  Ti  Ti55  1  0.625000  0.625000  0.823738  1
  Ti  Ti56  1  0.125000  0.375000  0.910084  1
  Ti  Ti57  1  0.625000  0.375000  0.910084  1
  Ti  Ti58  1  0.125000  0.875000  0.910084  1
  Ti  Ti59  1  0.625000  0.875000  0.910084  1
  Ti  Ti60  1  0.375000  0.125000  0.910084  1
  Ti  Ti61  1  0.875000  0.125000  0.910084  1
  Ti  Ti62  1  0.375000  0.625000  0.910084  1
  Ti  Ti63  1  0.875000  0.625000  0.910084  1
  Ti  Ti64  1  0.400433  0.360841  0.649939  1
  Ti  Ti65  1  0.895019  0.364251  0.653189  1
  Ti  Ti66  1  0.384806  0.867879  0.660790  1
  Ti  Ti67  1  0.884523  0.868609  0.667395  1
  Ti  Ti68  1  0.099567  0.139159  0.649939  1
  Ti  Ti69  1  0.604981  0.135749  0.653189  1
  Ti  Ti70  1  0.115194  0.632121  0.660790  1
  Ti  Ti71  1  0.615477  0.631391  0.667395  1
  Ti  Ti72  1  0.159028  0.387740  0.572381  1
  Ti  Ti73  1  0.654537  0.405335  0.572971  1
  Ti  Ti74  1  0.132492  0.882190  0.581849  1
  Ti  Ti75  1  0.634076  0.872741  0.578286  1
  Ti  Ti76  1  0.340972  0.112260  0.572381  1
  Ti  Ti77  1  0.845463  0.094665  0.572971  1
  Ti  Ti78  1  0.367508  0.617810  0.581849  1
  Ti  Ti79  1  0.865924  0.627259  0.578286  1
  Ti  Ti80  1  0.401689  0.375668  0.491875  1
  Ti  Ti81  1  0.907606  0.354352  0.504171  1
  Ti  Ti82  1  0.380705  0.856851  0.494730  1
  Ti  Ti83  1  0.902647  0.855971  0.478991  1
  Ti  Ti84  1  0.098311  0.124332  0.491875  1
  Ti  Ti85  1  0.592394  0.145648  0.504171  1
  Ti  Ti86  1  0.119295  0.643149  0.494730  1
  Ti  Ti87  1  0.597353  0.644029  0.478991  1
  Ti  Ti88  1  0.125000  0.875000  0.737395  1
  Ti  Ti89  1  0.625000  0.875000  0.737395  1
  Ti  Ti90  1  0.375000  0.625000  0.737395  1
  Ti  Ti91  1  0.875000  0.625000  0.737395  1
  Ti  Ti92  1  0.125000  0.375000  0.737395  1
  Ti  Ti93  1  0.625000  0.375000  0.737395  1
  Ti  Ti94  1  0.375000  0.125000  0.737395  1
  Ti  Ti95  1  0.875000  0.125000  0.737395  1
  Ti  Ti96  1  0.750000  0.750000  0.334068  1
