# generated using pymatgen
data_Ti96Al
_symmetry_space_group_name_H-M   'P 1'
_cell_length_a   9.51302000
_cell_length_b   9.35086000
_cell_length_c   18.54723000
_cell_angle_alpha   90.00000000
_cell_angle_beta   90.00000000
_cell_angle_gamma   90.00000000
_symmetry_Int_Tables_number   1
_chemical_formula_structural   Ti96Al
_chemical_formula_sum   'Ti96 Al1'
_cell_volume   1649.86732743
_cell_formula_units_Z   1
loop_
 _symmetry_equiv_pos_site_id
 _symmetry_equiv_pos_as_xyz
  1  'x, y, z'
loop_
 _atom_site_type_symbol
 _atom_site_label
 _atom_site_symmetry_multiplicity
 _atom_site_fract_x
 _atom_site_fract_y
 _atom_site_fract_z
 _atom_site_occupancy
  Ti  Ti0  1  0.140978  0.372997  0.405241  1
  Ti  Ti1  1  0.660092  0.351453  0.390129  1
  Ti  Ti2  1  0.140866  0.861497  0.399529  1
  Ti  Ti3  1  0.660565  0.862623  0.411773  1
  Ti  Ti4  1  0.163413  0.371268  0.236768  1
  Ti  Ti5  1  0.656177  0.373158  0.234601  1
  Ti  Ti6  1  0.162503  0.874183  0.234945  1
  Ti  Ti7  1  0.659251  0.871340  0.234706  1
  Ti  Ti8  1  0.166663  0.375018  0.077673  1
  Ti  Ti9  1  0.666666  0.374999  0.077659  1
  Ti  Ti10  1  0.166672  0.875008  0.077687  1
  Ti  Ti11  1  0.666653  0.875004  0.077683  1
  Ti  Ti12  1  0.404942  0.392755  0.319143  1
  Ti  Ti13  1  0.909352  0.379266  0.316474  1
  Ti  Ti14  1  0.399342  0.879369  0.322435  1
  Ti  Ti15  1  0.903992  0.878906  0.314397  1
  Ti  Ti16  1  0.416666  0.374991  0.155285  1
  Ti  Ti17  1  0.916684  0.374993  0.155306  1
  Ti  Ti18  1  0.416668  0.875051  0.155312  1
  Ti  Ti19  1  0.916674  0.874989  0.155324  1
  Ti  Ti20  1  0.416661  0.375016  -0.000014  1
  Ti  Ti21  1  0.916655  0.375011  -0.000005  1
  Ti  Ti22  1  0.416666  0.874999  -0.000024  1
  Ti  Ti23  1  0.916658  0.874992  -0.000010  1
  Ti  Ti24  1  0.090648  0.120734  0.316473  1
  Ti  Ti25  1  0.595058  0.107245  0.319142  1
  Ti  Ti26  1  0.096008  0.621094  0.314396  1
  Ti  Ti27  1  0.600658  0.620631  0.322435  1
  Ti  Ti28  1  0.083316  0.125011  0.155306  1
  Ti  Ti29  1  0.583334  0.125014  0.155284  1
  Ti  Ti30  1  0.083326  0.625016  0.155325  1
  Ti  Ti31  1  0.583332  0.624953  0.155313  1
  Ti  Ti32  1  0.083345  0.124992  -0.000006  1
  Ti  Ti33  1  0.583339  0.124988  -0.000015  1
  Ti  Ti34  1  0.083342  0.625014  -0.000009  1
  Ti  Ti35  1  0.583334  0.625007  -0.000023  1
  Ti  Ti36  1  0.339907  0.148547  0.390129  1
  Ti  Ti37  1  0.859021  0.127003  0.405241  1
  Ti  Ti38  1  0.339434  0.637377  0.411773  1
  Ti  Ti39  1  0.859133  0.638503  0.399529  1
  Ti  Ti40  1  0.343822  0.126843  0.234601  1
  Ti  Ti41  1  0.836586  0.128732  0.236768  1
  Ti  Ti42  1  0.340748  0.628661  0.234706  1
  Ti  Ti43  1  0.837496  0.625818  0.234945  1
  Ti  Ti44  1  0.333333  0.125004  0.077658  1
  Ti  Ti45  1  0.833336  0.124985  0.077673  1
  Ti  Ti46  1  0.333347  0.625001  0.077683  1
  Ti  Ti47  1  0.833327  0.624996  0.077687  1
  Ti  Ti48  1  0.374969  0.374997  0.823862  1
  Ti  Ti49  1  0.874999  0.374949  0.823851  1
  Ti  Ti50  1  0.375021  0.875067  0.823772  1
  Ti  Ti51  1  0.875027  0.875008  0.823803  1
  Ti  Ti52  1  0.125006  0.125048  0.823850  1
  Ti  Ti53  1  0.625036  0.125003  0.823861  1
  Ti  Ti54  1  0.124974  0.624993  0.823804  1
  Ti  Ti55  1  0.624981  0.624930  0.823774  1
  Ti  Ti56  1  0.124984  0.375026  0.910116  1
  Ti  Ti57  1  0.625006  0.375010  0.910114  1
  Ti  Ti58  1  0.125005  0.875007  0.910083  1
  Ti  Ti59  1  0.624994  0.874997  0.910072  1
  Ti  Ti60  1  0.374996  0.124992  0.910113  1
  Ti  Ti61  1  0.875020  0.124975  0.910114  1
  Ti  Ti62  1  0.375009  0.625005  0.910072  1
  Ti  Ti63  1  0.874999  0.624995  0.910084  1
  Ti  Ti64  1  0.381874  0.371151  0.669750  1
  Ti  Ti65  1  0.877121  0.393538  0.647631  1
  Ti  Ti66  1  0.381585  0.887578  0.661478  1
  Ti  Ti67  1  0.904730  0.881953  0.654832  1
  Ti  Ti68  1  0.122878  0.106461  0.647631  1
  Ti  Ti69  1  0.618125  0.128847  0.669750  1
  Ti  Ti70  1  0.095269  0.618044  0.654833  1
  Ti  Ti71  1  0.618414  0.612419  0.661478  1
  Ti  Ti72  1  0.131294  0.356413  0.571835  1
  Ti  Ti73  1  0.625281  0.357080  0.577655  1
  Ti  Ti74  1  0.166445  0.847294  0.568590  1
  Ti  Ti75  1  0.678463  0.923710  0.577114  1
  Ti  Ti76  1  0.374718  0.142920  0.577654  1
  Ti  Ti77  1  0.868706  0.143587  0.571835  1
  Ti  Ti78  1  0.321537  0.576290  0.577114  1
  Ti  Ti79  1  0.833555  0.652705  0.568591  1
  Ti  Ti80  1  0.397806  0.374011  0.480269  1
  Ti  Ti81  1  0.881304  0.387884  0.490183  1
  Ti  Ti82  1  0.370803  0.930987  0.474274  1
  Ti  Ti83  1  0.916477  0.888275  0.491081  1
  Ti  Ti84  1  0.118696  0.112116  0.490183  1
  Ti  Ti85  1  0.602194  0.125989  0.480269  1
  Ti  Ti86  1  0.083523  0.611725  0.491082  1
  Ti  Ti87  1  0.629197  0.569013  0.474274  1
  Ti  Ti88  1  0.125239  0.875208  0.737574  1
  Ti  Ti89  1  0.625131  0.875115  0.737585  1
  Ti  Ti90  1  0.374863  0.624874  0.737588  1
  Ti  Ti91  1  0.874756  0.624781  0.737579  1
  Ti  Ti92  1  0.124937  0.374893  0.737593  1
  Ti  Ti93  1  0.625118  0.374810  0.737630  1
  Ti  Ti94  1  0.374875  0.125176  0.737628  1
  Ti  Ti95  1  0.875058  0.125095  0.737591  1
  Al  Al96  1  0.500000  0.750000  0.540380  1
