# generated using pymatgen
data_Ti96Mo
_symmetry_space_group_name_H-M   'P 1'
_cell_length_a   9.51302000
_cell_length_b   9.35086000
_cell_length_c   18.54723000
_cell_angle_alpha   90.00000000
_cell_angle_beta   90.00000000
_cell_angle_gamma   90.00000000
_symmetry_Int_Tables_number   1
_chemical_formula_structural   Ti96Mo
_chemical_formula_sum   'Ti96 Mo1'
_cell_volume   1649.86732743
_cell_formula_units_Z   1
loop_
 _symmetry_equiv_pos_site_id
 _symmetry_equiv_pos_as_xyz
  1  'x, y, z'
loop_
 _atom_site_type_symbol
 _atom_site_label
 _atom_site_symmetry_multiplicity
 _atom_site_fract_x
 _atom_site_fract_y
 _atom_site_fract_z
 _atom_site_occupancy
  Ti  Ti0  1  0.139368  0.379288  0.404928  1
  Ti  Ti1  1  0.645720  0.358419  0.403295  1
  Ti  Ti2  1  0.168666  0.886448  0.402624  1
  Ti  Ti3  1  0.632721  0.945287  0.407438  1
  Ti  Ti4  1  0.161191  0.379597  0.235587  1
  Ti  Ti5  1  0.659917  0.377231  0.232164  1
  Ti  Ti6  1  0.161860  0.875974  0.236859  1
  Ti  Ti7  1  0.655918  0.881593  0.234789  1
  Ti  Ti8  1  0.166649  0.374986  0.077467  1
  Ti  Ti9  1  0.666701  0.375015  0.077475  1
  Ti  Ti10  1  0.166703  0.874983  0.077506  1
  Ti  Ti11  1  0.666693  0.874966  0.077649  1
  Ti  Ti12  1  0.395627  0.365788  0.319461  1
  Ti  Ti13  1  0.908289  0.360706  0.310800  1
  Ti  Ti14  1  0.412175  0.861662  0.321498  1
  Ti  Ti15  1  0.917662  0.894132  0.324326  1
  Ti  Ti16  1  0.416615  0.375032  0.155016  1
  Ti  Ti17  1  0.916799  0.374868  0.155004  1
  Ti  Ti18  1  0.416886  0.875028  0.155192  1
  Ti  Ti19  1  0.916635  0.874866  0.155184  1
  Ti  Ti20  1  0.416687  0.375012  -0.000093  1
  Ti  Ti21  1  0.916643  0.375003  -0.000077  1
  Ti  Ti22  1  0.416746  0.874991  -0.000035  1
  Ti  Ti23  1  0.916622  0.874967  -0.000024  1
  Ti  Ti24  1  0.104373  0.134213  0.319460  1
  Ti  Ti25  1  0.591710  0.139295  0.310799  1
  Ti  Ti26  1  0.087825  0.638339  0.321497  1
  Ti  Ti27  1  0.582338  0.605870  0.324325  1
  Ti  Ti28  1  0.083390  0.124991  0.155016  1
  Ti  Ti29  1  0.583196  0.125155  0.155001  1
  Ti  Ti30  1  0.083117  0.624987  0.155194  1
  Ti  Ti31  1  0.583362  0.625152  0.155184  1
  Ti  Ti32  1  0.083318  0.124996  -0.000094  1
  Ti  Ti33  1  0.583353  0.125005  -0.000077  1
  Ti  Ti34  1  0.083259  0.625011  -0.000035  1
  Ti  Ti35  1  0.583376  0.625037  -0.000024  1
  Ti  Ti36  1  0.360631  0.120712  0.404928  1
  Ti  Ti37  1  0.854279  0.141581  0.403294  1
  Ti  Ti38  1  0.331333  0.613553  0.402624  1
  Ti  Ti39  1  0.867278  0.554713  0.407438  1
  Ti  Ti40  1  0.338808  0.120407  0.235587  1
  Ti  Ti41  1  0.840082  0.122774  0.232163  1
  Ti  Ti42  1  0.338139  0.624030  0.236860  1
  Ti  Ti43  1  0.844081  0.618412  0.234789  1
  Ti  Ti44  1  0.333350  0.125030  0.077467  1
  Ti  Ti45  1  0.833299  0.125001  0.077475  1
  Ti  Ti46  1  0.333295  0.625033  0.077506  1
  Ti  Ti47  1  0.833307  0.625045  0.077648  1
  Ti  Ti48  1  0.374959  0.374995  0.823897  1
  Ti  Ti49  1  0.875018  0.374957  0.823859  1
  Ti  Ti50  1  0.375051  0.874996  0.823887  1
  Ti  Ti51  1  0.874977  0.874944  0.823813  1
  Ti  Ti52  1  0.125047  0.124997  0.823896  1
  Ti  Ti53  1  0.624990  0.125036  0.823859  1
  Ti  Ti54  1  0.124954  0.624991  0.823888  1
  Ti  Ti55  1  0.625030  0.625047  0.823814  1
  Ti  Ti56  1  0.124907  0.375047  0.910072  1
  Ti  Ti57  1  0.625053  0.375080  0.910048  1
  Ti  Ti58  1  0.124880  0.874946  0.910069  1
  Ti  Ti59  1  0.625068  0.874943  0.910028  1
  Ti  Ti60  1  0.375099  0.124952  0.910073  1
  Ti  Ti61  1  0.874951  0.124916  0.910048  1
  Ti  Ti62  1  0.375125  0.625045  0.910069  1
  Ti  Ti63  1  0.874937  0.625055  0.910028  1
  Ti  Ti64  1  0.392888  0.365773  0.647917  1
  Ti  Ti65  1  0.891747  0.365676  0.662224  1
  Ti  Ti66  1  0.384848  0.863316  0.663483  1
  Ti  Ti67  1  0.891248  0.864457  0.655866  1
  Ti  Ti68  1  0.107110  0.134222  0.647917  1
  Ti  Ti69  1  0.608250  0.134318  0.662223  1
  Ti  Ti70  1  0.115149  0.636676  0.663483  1
  Ti  Ti71  1  0.608749  0.635536  0.655866  1
  Ti  Ti72  1  0.144326  0.396052  0.574328  1
  Ti  Ti73  1  0.651970  0.387432  0.578526  1
  Ti  Ti74  1  0.149176  0.878590  0.573365  1
  Ti  Ti75  1  0.633056  0.891868  0.579257  1
  Ti  Ti76  1  0.355674  0.103946  0.574328  1
  Ti  Ti77  1  0.848029  0.112566  0.578526  1
  Ti  Ti78  1  0.350823  0.621408  0.573366  1
  Ti  Ti79  1  0.866943  0.608129  0.579257  1
  Ti  Ti80  1  0.386307  0.363326  0.491885  1
  Ti  Ti81  1  0.903888  0.349201  0.499276  1
  Ti  Ti82  1  0.405130  0.853592  0.485622  1
  Ti  Ti83  1  0.917795  0.896284  0.483366  1
  Ti  Ti84  1  0.113693  0.136673  0.491885  1
  Ti  Ti85  1  0.596112  0.150798  0.499276  1
  Ti  Ti86  1  0.094870  0.646407  0.485622  1
  Ti  Ti87  1  0.582205  0.603716  0.483367  1
  Ti  Ti88  1  0.125149  0.874963  0.737736  1
  Ti  Ti89  1  0.624975  0.875148  0.737596  1
  Ti  Ti90  1  0.374839  0.625007  0.737737  1
  Ti  Ti91  1  0.875018  0.624831  0.737598  1
  Ti  Ti92  1  0.125078  0.374902  0.737667  1
  Ti  Ti93  1  0.624932  0.374961  0.737708  1
  Ti  Ti94  1  0.374912  0.125077  0.737666  1
  Ti  Ti95  1  0.875057  0.125013  0.737707  1
  Mo  Mo96  1  0.750000  0.750000  0.412446  1
