# generated using pymatgen
data_ZrTi96
_symmetry_space_group_name_H-M   'P 1'
_cell_length_a   9.51302000
_cell_length_b   9.35086000
_cell_length_c   18.54723000
_cell_angle_alpha   90.00000000
_cell_angle_beta   90.00000000
_cell_angle_gamma   90.00000000
_symmetry_Int_Tables_number   1
_chemical_formula_structural   ZrTi96
_chemical_formula_sum   'Zr1 Ti96'
_cell_volume   1649.86732743
_cell_formula_units_Z   1
loop_
 _symmetry_equiv_pos_site_id
 _symmetry_equiv_pos_as_xyz
  1  'x, y, z'
loop_
 _atom_site_type_symbol
 _atom_site_label
 _atom_site_symmetry_multiplicity
 _atom_site_fract_x
 _atom_site_fract_y
 _atom_site_fract_z
 _atom_site_occupancy
  Ti  Ti0  1  0.146995  0.374613  0.404902  1
  Ti  Ti1  1  0.642460  0.337246  0.408019  1
  Ti  Ti2  1  0.135379  0.852502  0.407055  1
  Ti  Ti3  1  0.685607  0.893733  0.404549  1
  Ti  Ti4  1  0.153550  0.369096  0.238890  1
  Ti  Ti5  1  0.655289  0.365413  0.236564  1
  Ti  Ti6  1  0.159981  0.869615  0.232371  1
  Ti  Ti7  1  0.673080  0.886616  0.232310  1
  Ti  Ti8  1  0.166656  0.375107  0.077436  1
  Ti  Ti9  1  0.666750  0.374926  0.077353  1
  Ti  Ti10  1  0.166680  0.875013  0.077427  1
  Ti  Ti11  1  0.666582  0.874944  0.077517  1
  Ti  Ti12  1  0.409616  0.387311  0.319803  1
  Ti  Ti13  1  0.898759  0.372843  0.323828  1
  Ti  Ti14  1  0.357006  0.924208  0.328499  1
  Ti  Ti15  1  0.915099  0.878839  0.314865  1
  Ti  Ti16  1  0.416743  0.375242  0.154888  1
  Ti  Ti17  1  0.916836  0.374726  0.154905  1
  Ti  Ti18  1  0.416605  0.874932  0.155264  1
  Ti  Ti19  1  0.916609  0.875187  0.154846  1
  Ti  Ti20  1  0.416661  0.375044  -0.000125  1
  Ti  Ti21  1  0.916651  0.374969  -0.000158  1
  Ti  Ti22  1  0.416656  0.874966  -0.000036  1
  Ti  Ti23  1  0.916638  0.874998  -0.000169  1
  Ti  Ti24  1  0.101241  0.127159  0.323826  1
  Ti  Ti25  1  0.590383  0.112691  0.319802  1
  Ti  Ti26  1  0.084901  0.621163  0.314864  1
  Ti  Ti27  1  0.642994  0.575794  0.328498  1
  Ti  Ti28  1  0.083162  0.125305  0.154901  1
  Ti  Ti29  1  0.583257  0.124790  0.154890  1
  Ti  Ti30  1  0.083392  0.624847  0.154848  1
  Ti  Ti31  1  0.583397  0.625085  0.155262  1
  Ti  Ti32  1  0.083350  0.125036  -0.000161  1
  Ti  Ti33  1  0.583340  0.124966  -0.000125  1
  Ti  Ti34  1  0.083362  0.625014  -0.000168  1
  Ti  Ti35  1  0.583347  0.625036  -0.000038  1
  Ti  Ti36  1  0.357539  0.162754  0.408019  1
  Ti  Ti37  1  0.853004  0.125387  0.404902  1
  Ti  Ti38  1  0.314392  0.606268  0.404549  1
  Ti  Ti39  1  0.864620  0.647498  0.407055  1
  Ti  Ti40  1  0.344710  0.134593  0.236563  1
  Ti  Ti41  1  0.846449  0.130910  0.238890  1
  Ti  Ti42  1  0.326919  0.613391  0.232311  1
  Ti  Ti43  1  0.840018  0.630392  0.232371  1
  Ti  Ti44  1  0.333250  0.125098  0.077351  1
  Ti  Ti45  1  0.833343  0.124914  0.077436  1
  Ti  Ti46  1  0.333417  0.625077  0.077516  1
  Ti  Ti47  1  0.833320  0.625011  0.077426  1
  Ti  Ti48  1  0.375038  0.375068  0.823864  1
  Ti  Ti49  1  0.874942  0.374949  0.823881  1
  Ti  Ti50  1  0.375018  0.874954  0.823760  1
  Ti  Ti51  1  0.875011  0.875049  0.823740  1
  Ti  Ti52  1  0.125060  0.125028  0.823878  1
  Ti  Ti53  1  0.624967  0.124914  0.823863  1
  Ti  Ti54  1  0.124990  0.624937  0.823742  1
  Ti  Ti55  1  0.624985  0.625031  0.823760  1
  Ti  Ti56  1  0.125040  0.375101  0.910140  1
  Ti  Ti57  1  0.624992  0.375090  0.910174  1
  Ti  Ti58  1  0.125062  0.874946  0.910135  1
  Ti  Ti59  1  0.624964  0.874923  0.910203  1
  Ti  Ti60  1  0.375014  0.124891  0.910175  1
  Ti  Ti61  1  0.874965  0.124881  0.910140  1
  Ti  Ti62  1  0.375038  0.625052  0.910203  1
  Ti  Ti63  1  0.874944  0.625034  0.910135  1
  Ti  Ti64  1  0.394211  0.386954  0.654605  1
  Ti  Ti65  1  0.896269  0.374172  0.652434  1
  Ti  Ti66  1  0.396457  0.889214  0.649990  1
  Ti  Ti67  1  0.885790  0.884585  0.664234  1
  Ti  Ti68  1  0.103729  0.125825  0.652433  1
  Ti  Ti69  1  0.605788  0.113041  0.654605  1
  Ti  Ti70  1  0.114209  0.615408  0.664235  1
  Ti  Ti71  1  0.603543  0.610781  0.649991  1
  Ti  Ti72  1  0.149817  0.373780  0.571690  1
  Ti  Ti73  1  0.650698  0.349232  0.574441  1
  Ti  Ti74  1  0.133764  0.866002  0.584012  1
  Ti  Ti75  1  0.652710  0.859561  0.575214  1
  Ti  Ti76  1  0.349302  0.150767  0.574440  1
  Ti  Ti77  1  0.850183  0.126219  0.571690  1
  Ti  Ti78  1  0.347290  0.640437  0.575214  1
  Ti  Ti79  1  0.866236  0.633995  0.584012  1
  Ti  Ti80  1  0.405724  0.397675  0.496050  1
  Ti  Ti81  1  0.898482  0.372564  0.486722  1
  Ti  Ti82  1  0.356287  0.916046  0.494436  1
  Ti  Ti83  1  0.909174  0.883703  0.494685  1
  Ti  Ti84  1  0.101518  0.127436  0.486722  1
  Ti  Ti85  1  0.594276  0.102324  0.496050  1
  Ti  Ti86  1  0.090826  0.616297  0.494685  1
  Ti  Ti87  1  0.643713  0.583954  0.494436  1
  Ti  Ti88  1  0.125013  0.875282  0.737593  1
  Ti  Ti89  1  0.624974  0.875102  0.737556  1
  Ti  Ti90  1  0.375022  0.624881  0.737557  1
  Ti  Ti91  1  0.874984  0.624698  0.737598  1
  Ti  Ti92  1  0.124906  0.375005  0.737679  1
  Ti  Ti93  1  0.624947  0.374898  0.737716  1
  Ti  Ti94  1  0.375043  0.125073  0.737714  1
  Ti  Ti95  1  0.875087  0.124969  0.737678  1
  Zr  Zr96  1  0.500000  0.750000  0.378446  1
