# generated using pymatgen
data_ZrTi96
_symmetry_space_group_name_H-M   'P 1'
_cell_length_a   9.51302000
_cell_length_b   9.35086000
_cell_length_c   18.54723000
_cell_angle_alpha   90.00000000
_cell_angle_beta   90.00000000
_cell_angle_gamma   90.00000000
_symmetry_Int_Tables_number   1
_chemical_formula_structural   ZrTi96
_chemical_formula_sum   'Zr1 Ti96'
_cell_volume   1649.86732743
_cell_formula_units_Z   1
loop_
 _symmetry_equiv_pos_site_id
 _symmetry_equiv_pos_as_xyz
  1  'x, y, z'
loop_
 _atom_site_type_symbol
 _atom_site_label
 _atom_site_symmetry_multiplicity
 _atom_site_fract_x
 _atom_site_fract_y
 _atom_site_fract_z
 _atom_site_occupancy
  Ti  Ti0  1  0.143112  0.368571  0.405558  1
  Ti  Ti1  1  0.636385  0.338850  0.407401  1
  Ti  Ti2  1  0.141229  0.846412  0.399770  1
  Ti  Ti3  1  0.687453  0.906050  0.397788  1
  Ti  Ti4  1  0.151461  0.368690  0.238788  1
  Ti  Ti5  1  0.659379  0.368073  0.235119  1
  Ti  Ti6  1  0.161054  0.872700  0.233122  1
  Ti  Ti7  1  0.668581  0.879063  0.233713  1
  Ti  Ti8  1  0.166653  0.375058  0.077523  1
  Ti  Ti9  1  0.666716  0.374911  0.077495  1
  Ti  Ti10  1  0.166672  0.875020  0.077503  1
  Ti  Ti11  1  0.666616  0.874993  0.077527  1
  Ti  Ti12  1  0.407435  0.381483  0.314371  1
  Ti  Ti13  1  0.890797  0.381475  0.328518  1
  Ti  Ti14  1  0.380888  0.907335  0.323983  1
  Ti  Ti15  1  0.916204  0.882439  0.312511  1
  Ti  Ti16  1  0.416737  0.375076  0.155102  1
  Ti  Ti17  1  0.916675  0.374803  0.155066  1
  Ti  Ti18  1  0.416594  0.874947  0.155274  1
  Ti  Ti19  1  0.916691  0.875192  0.154990  1
  Ti  Ti20  1  0.416679  0.375021  -0.000086  1
  Ti  Ti21  1  0.916647  0.374974  -0.000114  1
  Ti  Ti22  1  0.416671  0.874982  -0.000046  1
  Ti  Ti23  1  0.916659  0.875003  -0.000146  1
  Ti  Ti24  1  0.109203  0.118526  0.328517  1
  Ti  Ti25  1  0.592565  0.118518  0.314370  1
  Ti  Ti26  1  0.083796  0.617563  0.312510  1
  Ti  Ti27  1  0.619111  0.592666  0.323982  1
  Ti  Ti28  1  0.083325  0.125214  0.155064  1
  Ti  Ti29  1  0.583264  0.124941  0.155102  1
  Ti  Ti30  1  0.083309  0.624831  0.154991  1
  Ti  Ti31  1  0.583408  0.625065  0.155272  1
  Ti  Ti32  1  0.083356  0.125026  -0.000116  1
  Ti  Ti33  1  0.583321  0.124983  -0.000085  1
  Ti  Ti34  1  0.083341  0.625007  -0.000145  1
  Ti  Ti35  1  0.583332  0.625023  -0.000047  1
  Ti  Ti36  1  0.363614  0.161150  0.407401  1
  Ti  Ti37  1  0.856887  0.131429  0.405558  1
  Ti  Ti38  1  0.312546  0.593950  0.397788  1
  Ti  Ti39  1  0.858770  0.653588  0.399770  1
  Ti  Ti40  1  0.340620  0.131931  0.235119  1
  Ti  Ti41  1  0.848538  0.131314  0.238788  1
  Ti  Ti42  1  0.331418  0.620940  0.233713  1
  Ti  Ti43  1  0.838945  0.627304  0.233122  1
  Ti  Ti44  1  0.333284  0.125100  0.077495  1
  Ti  Ti45  1  0.833346  0.124953  0.077524  1
  Ti  Ti46  1  0.333382  0.625022  0.077526  1
  Ti  Ti47  1  0.833328  0.624995  0.077503  1
  Ti  Ti48  1  0.375016  0.375037  0.823819  1
  Ti  Ti49  1  0.874960  0.375013  0.823867  1
  Ti  Ti50  1  0.375032  0.874899  0.823758  1
  Ti  Ti51  1  0.875007  0.875020  0.823692  1
  Ti  Ti52  1  0.125049  0.124976  0.823867  1
  Ti  Ti53  1  0.624983  0.124955  0.823819  1
  Ti  Ti54  1  0.124997  0.624975  0.823694  1
  Ti  Ti55  1  0.624977  0.625097  0.823757  1
  Ti  Ti56  1  0.125050  0.375099  0.910062  1
  Ti  Ti57  1  0.624970  0.375085  0.910058  1
  Ti  Ti58  1  0.125066  0.874922  0.910018  1
  Ti  Ti59  1  0.624952  0.874956  0.910001  1
  Ti  Ti60  1  0.375037  0.124909  0.910058  1
  Ti  Ti61  1  0.874955  0.124895  0.910064  1
  Ti  Ti62  1  0.375052  0.625042  0.910001  1
  Ti  Ti63  1  0.874938  0.625075  0.910016  1
  Ti  Ti64  1  0.392048  0.389062  0.656442  1
  Ti  Ti65  1  0.895997  0.372236  0.650907  1
  Ti  Ti66  1  0.396044  0.890776  0.647255  1
  Ti  Ti67  1  0.884105  0.884844  0.667011  1
  Ti  Ti68  1  0.104000  0.127760  0.650907  1
  Ti  Ti69  1  0.607950  0.110934  0.656441  1
  Ti  Ti70  1  0.115894  0.615151  0.667012  1
  Ti  Ti71  1  0.603954  0.609219  0.647256  1
  Ti  Ti72  1  0.150010  0.379840  0.569762  1
  Ti  Ti73  1  0.648429  0.344024  0.576189  1
  Ti  Ti74  1  0.128293  0.861999  0.585709  1
  Ti  Ti75  1  0.654612  0.860156  0.575670  1
  Ti  Ti76  1  0.351570  0.155975  0.576189  1
  Ti  Ti77  1  0.849989  0.120158  0.569762  1
  Ti  Ti78  1  0.345387  0.639842  0.575670  1
  Ti  Ti79  1  0.871707  0.637999  0.585709  1
  Ti  Ti80  1  0.410287  0.400899  0.496452  1
  Ti  Ti81  1  0.898092  0.371240  0.488062  1
  Ti  Ti82  1  0.334500  0.927626  0.495546  1
  Ti  Ti83  1  0.913136  0.881649  0.489692  1
  Ti  Ti84  1  0.101908  0.128760  0.488062  1
  Ti  Ti85  1  0.589713  0.099100  0.496452  1
  Ti  Ti86  1  0.086864  0.618351  0.489692  1
  Ti  Ti87  1  0.665499  0.572373  0.495546  1
  Ti  Ti88  1  0.125004  0.874809  0.737573  1
  Ti  Ti89  1  0.625133  0.875198  0.737515  1
  Ti  Ti90  1  0.374861  0.624787  0.737519  1
  Ti  Ti91  1  0.874987  0.625174  0.737570  1
  Ti  Ti92  1  0.125013  0.375035  0.737652  1
  Ti  Ti93  1  0.624914  0.374967  0.737701  1
  Ti  Ti94  1  0.375073  0.125002  0.737699  1
  Ti  Ti95  1  0.874977  0.124940  0.737654  1
  Zr  Zr96  1  0.500000  0.750000  0.419394  1
