# generated using pymatgen
data_Ti96Al
_symmetry_space_group_name_H-M   'P 1'
_cell_length_a   9.51302000
_cell_length_b   9.35086000
_cell_length_c   18.54723000
_cell_angle_alpha   90.00000000
_cell_angle_beta   90.00000000
_cell_angle_gamma   90.00000000
_symmetry_Int_Tables_number   1
_chemical_formula_structural   Ti96Al
_chemical_formula_sum   'Ti96 Al1'
_cell_volume   1649.86732743
_cell_formula_units_Z   1
loop_
 _symmetry_equiv_pos_site_id
 _symmetry_equiv_pos_as_xyz
  1  'x, y, z'
loop_
 _atom_site_type_symbol
 _atom_site_label
 _atom_site_symmetry_multiplicity
 _atom_site_fract_x
 _atom_site_fract_y
 _atom_site_fract_z
 _atom_site_occupancy
  Ti  Ti0  1  0.151573  0.378478  0.404966  1
  Ti  Ti1  1  0.643041  0.333827  0.407412  1
  Ti  Ti2  1  0.127360  0.853131  0.392475  1
  Ti  Ti3  1  0.670425  0.872460  0.390578  1
  Ti  Ti4  1  0.161584  0.371253  0.234566  1
  Ti  Ti5  1  0.661006  0.376774  0.234557  1
  Ti  Ti6  1  0.165210  0.874210  0.235457  1
  Ti  Ti7  1  0.651552  0.868909  0.237729  1
  Ti  Ti8  1  0.166666  0.375000  0.077689  1
  Ti  Ti9  1  0.666666  0.375000  0.077689  1
  Ti  Ti10  1  0.166666  0.875000  0.077689  1
  Ti  Ti11  1  0.666666  0.875000  0.077689  1
  Ti  Ti12  1  0.406900  0.380593  0.312877  1
  Ti  Ti13  1  0.896400  0.372504  0.322352  1
  Ti  Ti14  1  0.399407  0.897460  0.335765  1
  Ti  Ti15  1  0.913120  0.885954  0.307016  1
  Ti  Ti16  1  0.416667  0.375000  0.155379  1
  Ti  Ti17  1  0.916667  0.375000  0.155379  1
  Ti  Ti18  1  0.416667  0.875000  0.155379  1
  Ti  Ti19  1  0.916667  0.875000  0.155379  1
  Ti  Ti20  1  0.416667  0.375000  0.000000  1
  Ti  Ti21  1  0.916667  0.375000  0.000000  1
  Ti  Ti22  1  0.416667  0.875000  0.000000  1
  Ti  Ti23  1  0.916667  0.875000  0.000000  1
  Ti  Ti24  1  0.103600  0.127496  0.322351  1
  Ti  Ti25  1  0.593100  0.119407  0.312876  1
  Ti  Ti26  1  0.086880  0.614046  0.307015  1
  Ti  Ti27  1  0.600593  0.602540  0.335764  1
  Ti  Ti28  1  0.083333  0.125000  0.155379  1
  Ti  Ti29  1  0.583333  0.125000  0.155379  1
  Ti  Ti30  1  0.083333  0.625000  0.155379  1
  Ti  Ti31  1  0.583333  0.625000  0.155379  1
  Ti  Ti32  1  0.083333  0.125000  0.000000  1
  Ti  Ti33  1  0.583333  0.125000  0.000000  1
  Ti  Ti34  1  0.083333  0.625000  0.000000  1
  Ti  Ti35  1  0.583333  0.625000  0.000000  1
  Ti  Ti36  1  0.356958  0.166173  0.407412  1
  Ti  Ti37  1  0.848426  0.121522  0.404966  1
  Ti  Ti38  1  0.329574  0.627540  0.390578  1
  Ti  Ti39  1  0.872639  0.646869  0.392475  1
  Ti  Ti40  1  0.338993  0.123226  0.234557  1
  Ti  Ti41  1  0.838415  0.128747  0.234566  1
  Ti  Ti42  1  0.348447  0.631091  0.237729  1
  Ti  Ti43  1  0.834789  0.625790  0.235457  1
  Ti  Ti44  1  0.333333  0.125000  0.077689  1
  Ti  Ti45  1  0.833333  0.125000  0.077689  1
  Ti  Ti46  1  0.333333  0.625000  0.077689  1
  Ti  Ti47  1  0.833333  0.625000  0.077689  1
  Ti  Ti48  1  0.375000  0.375000  0.823738  1
  Ti  Ti49  1  0.875000  0.375000  0.823738  1
  Ti  Ti50  1  0.375000  0.875000  0.823738  1
  Ti  Ti51  1  0.875000  0.875000  0.823738  1
  Ti  Ti52  1  0.125000  0.125000  0.823738  1
  Ti  Ti53  1  0.625000  0.125000  0.823738  1
  Ti  Ti54  1  0.125000  0.625000  0.823738  1
  Ti  Ti55  1  0.625000  0.625000  0.823738  1
  Ti  Ti56  1  0.125000  0.375000  0.910084  1
  Ti  Ti57  1  0.625000  0.375000  0.910084  1
  Ti  Ti58  1  0.125000  0.875000  0.910084  1
  Ti  Ti59  1  0.625000  0.875000  0.910084  1
  Ti  Ti60  1  0.375000  0.125000  0.910084  1
  Ti  Ti61  1  0.875000  0.125000  0.910084  1
  Ti  Ti62  1  0.375000  0.625000  0.910084  1
  Ti  Ti63  1  0.875000  0.625000  0.910084  1
  Ti  Ti64  1  0.393378  0.385128  0.660854  1
  Ti  Ti65  1  0.891320  0.371857  0.644857  1
  Ti  Ti66  1  0.390322  0.895566  0.641284  1
  Ti  Ti67  1  0.882272  0.884898  0.671755  1
  Ti  Ti68  1  0.108680  0.128143  0.644857  1
  Ti  Ti69  1  0.606622  0.114872  0.660854  1
  Ti  Ti70  1  0.117728  0.615102  0.671755  1
  Ti  Ti71  1  0.609678  0.604434  0.641284  1
  Ti  Ti72  1  0.154797  0.382379  0.569222  1
  Ti  Ti73  1  0.637112  0.333410  0.569390  1
  Ti  Ti74  1  0.118576  0.855746  0.586669  1
  Ti  Ti75  1  0.659014  0.864863  0.581378  1
  Ti  Ti76  1  0.362888  0.166590  0.569390  1
  Ti  Ti77  1  0.845203  0.117621  0.569222  1
  Ti  Ti78  1  0.340986  0.635137  0.581378  1
  Ti  Ti79  1  0.881424  0.644254  0.586669  1
  Ti  Ti80  1  0.416804  0.427268  0.487056  1
  Ti  Ti81  1  0.904285  0.369648  0.486683  1
  Ti  Ti82  1  0.307478  0.933369  0.490364  1
  Ti  Ti83  1  0.906526  0.881944  0.488569  1
  Ti  Ti84  1  0.095715  0.130352  0.486683  1
  Ti  Ti85  1  0.583196  0.072732  0.487056  1
  Ti  Ti86  1  0.093474  0.618056  0.488569  1
  Ti  Ti87  1  0.692522  0.566631  0.490364  1
  Ti  Ti88  1  0.125000  0.875000  0.737395  1
  Ti  Ti89  1  0.625000  0.875000  0.737395  1
  Ti  Ti90  1  0.375000  0.625000  0.737395  1
  Ti  Ti91  1  0.875000  0.625000  0.737395  1
  Ti  Ti92  1  0.125000  0.375000  0.737395  1
  Ti  Ti93  1  0.625000  0.375000  0.737395  1
  Ti  Ti94  1  0.375000  0.125000  0.737395  1
  Ti  Ti95  1  0.875000  0.125000  0.737395  1
  Al  Al96  1  0.500000  0.750000  0.480096  1
