# generated using pymatgen
data_Ti96Nb
_symmetry_space_group_name_H-M   'P 1'
_cell_length_a   9.51302000
_cell_length_b   9.35086000
_cell_length_c   18.54723000
_cell_angle_alpha   90.00000000
_cell_angle_beta   90.00000000
_cell_angle_gamma   90.00000000
_symmetry_Int_Tables_number   1
_chemical_formula_structural   Ti96Nb
_chemical_formula_sum   'Ti96 Nb1'
_cell_volume   1649.86732743
_cell_formula_units_Z   1
loop_
 _symmetry_equiv_pos_site_id
 _symmetry_equiv_pos_as_xyz
  1  'x, y, z'
loop_
 _atom_site_type_symbol
 _atom_site_label
 _atom_site_symmetry_multiplicity
 _atom_site_fract_x
 _atom_site_fract_y
 _atom_site_fract_z
 _atom_site_occupancy
  Ti  Ti0  1  0.139167  0.366285  0.406181  1
  Ti  Ti1  1  0.646434  0.344827  0.406163  1
  Ti  Ti2  1  0.148918  0.855634  0.395571  1
  Ti  Ti3  1  0.680473  0.901847  0.396642  1
  Ti  Ti4  1  0.160054  0.375805  0.235739  1
  Ti  Ti5  1  0.663719  0.371182  0.231141  1
  Ti  Ti6  1  0.161868  0.873739  0.234471  1
  Ti  Ti7  1  0.655316  0.865204  0.241136  1
  Ti  Ti8  1  0.166677  0.375002  0.077664  1
  Ti  Ti9  1  0.666664  0.374999  0.077669  1
  Ti  Ti10  1  0.166704  0.874993  0.077687  1
  Ti  Ti11  1  0.666669  0.875023  0.077688  1
  Ti  Ti12  1  0.404150  0.372496  0.312670  1
  Ti  Ti13  1  0.897443  0.374273  0.319075  1
  Ti  Ti14  1  0.401508  0.904075  0.320759  1
  Ti  Ti15  1  0.915971  0.882939  0.313603  1
  Ti  Ti16  1  0.416668  0.374989  0.155290  1
  Ti  Ti17  1  0.916641  0.374970  0.155295  1
  Ti  Ti18  1  0.416689  0.875033  0.155354  1
  Ti  Ti19  1  0.916753  0.874991  0.155291  1
  Ti  Ti20  1  0.416668  0.375000  -0.000010  1
  Ti  Ti21  1  0.916657  0.375000  -0.000011  1
  Ti  Ti22  1  0.416670  0.874995  0.000014  1
  Ti  Ti23  1  0.916673  0.874998  -0.000002  1
  Ti  Ti24  1  0.102557  0.125727  0.319074  1
  Ti  Ti25  1  0.595850  0.127504  0.312669  1
  Ti  Ti26  1  0.084029  0.617061  0.313602  1
  Ti  Ti27  1  0.598492  0.595925  0.320758  1
  Ti  Ti28  1  0.083358  0.125034  0.155294  1
  Ti  Ti29  1  0.583332  0.125016  0.155290  1
  Ti  Ti30  1  0.083247  0.625013  0.155291  1
  Ti  Ti31  1  0.583312  0.624970  0.155354  1
  Ti  Ti32  1  0.083343  0.125001  -0.000011  1
  Ti  Ti33  1  0.583332  0.125002  -0.000010  1
  Ti  Ti34  1  0.083327  0.625003  -0.000002  1
  Ti  Ti35  1  0.583330  0.625005  0.000014  1
  Ti  Ti36  1  0.353565  0.155173  0.406163  1
  Ti  Ti37  1  0.860832  0.133715  0.406181  1
  Ti  Ti38  1  0.319526  0.598153  0.396642  1
  Ti  Ti39  1  0.851081  0.644366  0.395571  1
  Ti  Ti40  1  0.336280  0.128819  0.231141  1
  Ti  Ti41  1  0.839945  0.124195  0.235739  1
  Ti  Ti42  1  0.344683  0.634796  0.241136  1
  Ti  Ti43  1  0.838131  0.626261  0.234471  1
  Ti  Ti44  1  0.333335  0.125003  0.077669  1
  Ti  Ti45  1  0.833322  0.125001  0.077663  1
  Ti  Ti46  1  0.333331  0.624979  0.077688  1
  Ti  Ti47  1  0.833295  0.625009  0.077687  1
  Ti  Ti48  1  0.375019  0.375017  0.823789  1
  Ti  Ti49  1  0.874986  0.374987  0.823801  1
  Ti  Ti50  1  0.375011  0.874995  0.823788  1
  Ti  Ti51  1  0.874989  0.875005  0.823796  1
  Ti  Ti52  1  0.125014  0.125011  0.823801  1
  Ti  Ti53  1  0.624983  0.124982  0.823789  1
  Ti  Ti54  1  0.125012  0.624993  0.823796  1
  Ti  Ti55  1  0.624990  0.625003  0.823788  1
  Ti  Ti56  1  0.125004  0.375003  0.910104  1
  Ti  Ti57  1  0.624998  0.375003  0.910100  1
  Ti  Ti58  1  0.125005  0.875001  0.910107  1
  Ti  Ti59  1  0.624991  0.874999  0.910101  1
  Ti  Ti60  1  0.375003  0.124996  0.910100  1
  Ti  Ti61  1  0.874997  0.124996  0.910104  1
  Ti  Ti62  1  0.375010  0.624999  0.910101  1
  Ti  Ti63  1  0.874995  0.624998  0.910107  1
  Ti  Ti64  1  0.392053  0.391371  0.656858  1
  Ti  Ti65  1  0.896824  0.373673  0.648340  1
  Ti  Ti66  1  0.392409  0.888408  0.648414  1
  Ti  Ti67  1  0.881612  0.885254  0.666853  1
  Ti  Ti68  1  0.103175  0.126327  0.648340  1
  Ti  Ti69  1  0.607947  0.108628  0.656858  1
  Ti  Ti70  1  0.118388  0.614745  0.666853  1
  Ti  Ti71  1  0.607591  0.611592  0.648414  1
  Ti  Ti72  1  0.150264  0.380161  0.566541  1
  Ti  Ti73  1  0.644955  0.343039  0.577707  1
  Ti  Ti74  1  0.125491  0.858103  0.585153  1
  Ti  Ti75  1  0.654066  0.859548  0.571653  1
  Ti  Ti76  1  0.355044  0.156961  0.577707  1
  Ti  Ti77  1  0.849736  0.119839  0.566541  1
  Ti  Ti78  1  0.345934  0.640452  0.571653  1
  Ti  Ti79  1  0.874509  0.641896  0.585154  1
  Ti  Ti80  1  0.410615  0.395797  0.491686  1
  Ti  Ti81  1  0.896495  0.377598  0.489764  1
  Ti  Ti82  1  0.339360  0.924820  0.496088  1
  Ti  Ti83  1  0.911393  0.877061  0.485819  1
  Ti  Ti84  1  0.103505  0.122401  0.489764  1
  Ti  Ti85  1  0.589385  0.104203  0.491686  1
  Ti  Ti86  1  0.088607  0.622939  0.485819  1
  Ti  Ti87  1  0.660640  0.575180  0.496088  1
  Ti  Ti88  1  0.124977  0.875050  0.737507  1
  Ti  Ti89  1  0.624989  0.874948  0.737459  1
  Ti  Ti90  1  0.375010  0.625049  0.737458  1
  Ti  Ti91  1  0.875021  0.624945  0.737507  1
  Ti  Ti92  1  0.124991  0.375018  0.737500  1
  Ti  Ti93  1  0.624996  0.374929  0.737479  1
  Ti  Ti94  1  0.375003  0.125067  0.737479  1
  Ti  Ti95  1  0.875007  0.124978  0.737500  1
  Nb  Nb96  1  0.500000  0.750000  0.446804  1
