# generated using pymatgen
data_Ti96Sn
_symmetry_space_group_name_H-M   'P 1'
_cell_length_a   9.51302000
_cell_length_b   9.35086000
_cell_length_c   18.54723000
_cell_angle_alpha   90.00000000
_cell_angle_beta   90.00000000
_cell_angle_gamma   90.00000000
_symmetry_Int_Tables_number   1
_chemical_formula_structural   Ti96Sn
_chemical_formula_sum   'Ti96 Sn1'
_cell_volume   1649.86732743
_cell_formula_units_Z   1
loop_
 _symmetry_equiv_pos_site_id
 _symmetry_equiv_pos_as_xyz
  1  'x, y, z'
loop_
 _atom_site_type_symbol
 _atom_site_label
 _atom_site_symmetry_multiplicity
 _atom_site_fract_x
 _atom_site_fract_y
 _atom_site_fract_z
 _atom_site_occupancy
  Ti  Ti0  1  0.151367  0.385234  0.404504  1
  Ti  Ti1  1  0.646179  0.328155  0.411918  1
  Ti  Ti2  1  0.120060  0.849401  0.415350  1
  Ti  Ti3  1  0.671077  0.869799  0.408835  1
  Ti  Ti4  1  0.148512  0.363419  0.239693  1
  Ti  Ti5  1  0.658640  0.370172  0.235360  1
  Ti  Ti6  1  0.162533  0.867853  0.233178  1
  Ti  Ti7  1  0.679349  0.899790  0.231091  1
  Ti  Ti8  1  0.166718  0.375108  0.077369  1
  Ti  Ti9  1  0.666704  0.374969  0.077339  1
  Ti  Ti10  1  0.166705  0.875043  0.077453  1
  Ti  Ti11  1  0.666572  0.874918  0.077462  1
  Ti  Ti12  1  0.412519  0.384718  0.320426  1
  Ti  Ti13  1  0.898406  0.369807  0.325415  1
  Ti  Ti14  1  0.335193  0.938642  0.340625  1
  Ti  Ti15  1  0.917235  0.881782  0.313381  1
  Ti  Ti16  1  0.416765  0.375091  0.154900  1
  Ti  Ti17  1  0.916786  0.374794  0.154815  1
  Ti  Ti18  1  0.416551  0.875140  0.155244  1
  Ti  Ti19  1  0.916760  0.875015  0.154824  1
  Ti  Ti20  1  0.416672  0.375043  -0.000186  1
  Ti  Ti21  1  0.916651  0.374988  -0.000242  1
  Ti  Ti22  1  0.416653  0.874978  -0.000084  1
  Ti  Ti23  1  0.916655  0.874982  -0.000211  1
  Ti  Ti24  1  0.101594  0.130196  0.325413  1
  Ti  Ti25  1  0.587481  0.115284  0.320425  1
  Ti  Ti26  1  0.082765  0.618221  0.313380  1
  Ti  Ti27  1  0.664807  0.561360  0.340624  1
  Ti  Ti28  1  0.083212  0.125242  0.154812  1
  Ti  Ti29  1  0.583235  0.124942  0.154900  1
  Ti  Ti30  1  0.083240  0.625019  0.154824  1
  Ti  Ti31  1  0.583451  0.624874  0.155246  1
  Ti  Ti32  1  0.083350  0.125023  -0.000243  1
  Ti  Ti33  1  0.583330  0.124972  -0.000186  1
  Ti  Ti34  1  0.083346  0.625028  -0.000210  1
  Ti  Ti35  1  0.583350  0.625021  -0.000084  1
  Ti  Ti36  1  0.353820  0.171845  0.411918  1
  Ti  Ti37  1  0.848632  0.114766  0.404504  1
  Ti  Ti38  1  0.328921  0.630202  0.408835  1
  Ti  Ti39  1  0.879939  0.650599  0.415350  1
  Ti  Ti40  1  0.341359  0.129835  0.235359  1
  Ti  Ti41  1  0.851487  0.136588  0.239693  1
  Ti  Ti42  1  0.320649  0.600218  0.231092  1
  Ti  Ti43  1  0.837466  0.632156  0.233179  1
  Ti  Ti44  1  0.333296  0.125057  0.077339  1
  Ti  Ti45  1  0.833282  0.124917  0.077370  1
  Ti  Ti46  1  0.333427  0.625103  0.077461  1
  Ti  Ti47  1  0.833295  0.624978  0.077454  1
  Ti  Ti48  1  0.375051  0.375103  0.823775  1
  Ti  Ti49  1  0.874933  0.374947  0.823753  1
  Ti  Ti50  1  0.375051  0.874970  0.823669  1
  Ti  Ti51  1  0.874931  0.874980  0.823790  1
  Ti  Ti52  1  0.125064  0.125027  0.823751  1
  Ti  Ti53  1  0.624960  0.124888  0.823775  1
  Ti  Ti54  1  0.125075  0.625006  0.823791  1
  Ti  Ti55  1  0.624950  0.625010  0.823669  1
  Ti  Ti56  1  0.125046  0.375077  0.910026  1
  Ti  Ti57  1  0.624997  0.375095  0.910067  1
  Ti  Ti58  1  0.125108  0.874966  0.910061  1
  Ti  Ti59  1  0.624941  0.874897  0.910130  1
  Ti  Ti60  1  0.375007  0.124889  0.910070  1
  Ti  Ti61  1  0.874961  0.124912  0.910026  1
  Ti  Ti62  1  0.375063  0.625078  0.910129  1
  Ti  Ti63  1  0.874899  0.625015  0.910062  1
  Ti  Ti64  1  0.394360  0.387135  0.656460  1
  Ti  Ti65  1  0.895973  0.381952  0.652753  1
  Ti  Ti66  1  0.394898  0.888514  0.649481  1
  Ti  Ti67  1  0.887829  0.887504  0.661461  1
  Ti  Ti68  1  0.104026  0.118042  0.652753  1
  Ti  Ti69  1  0.605638  0.112857  0.656460  1
  Ti  Ti70  1  0.112167  0.612487  0.661462  1
  Ti  Ti71  1  0.605102  0.611481  0.649481  1
  Ti  Ti72  1  0.149493  0.363169  0.574322  1
  Ti  Ti73  1  0.645988  0.352143  0.576040  1
  Ti  Ti74  1  0.138154  0.863184  0.583157  1
  Ti  Ti75  1  0.652481  0.861728  0.574016  1
  Ti  Ti76  1  0.354012  0.147854  0.576040  1
  Ti  Ti77  1  0.850506  0.136829  0.574321  1
  Ti  Ti78  1  0.347518  0.638269  0.574015  1
  Ti  Ti79  1  0.861845  0.636813  0.583158  1
  Ti  Ti80  1  0.403521  0.401502  0.493990  1
  Ti  Ti81  1  0.898358  0.373834  0.485118  1
  Ti  Ti82  1  0.365160  0.906642  0.491934  1
  Ti  Ti83  1  0.904302  0.894380  0.501848  1
  Ti  Ti84  1  0.101642  0.126166  0.485118  1
  Ti  Ti85  1  0.596479  0.098498  0.493990  1
  Ti  Ti86  1  0.095698  0.605619  0.501848  1
  Ti  Ti87  1  0.634839  0.593357  0.491934  1
  Ti  Ti88  1  0.125072  0.875298  0.737634  1
  Ti  Ti89  1  0.624674  0.874847  0.737523  1
  Ti  Ti90  1  0.375318  0.625128  0.737516  1
  Ti  Ti91  1  0.874918  0.624669  0.737641  1
  Ti  Ti92  1  0.124770  0.374875  0.737589  1
  Ti  Ti93  1  0.625085  0.374897  0.737580  1
  Ti  Ti94  1  0.374905  0.125076  0.737581  1
  Ti  Ti95  1  0.875222  0.125099  0.737585  1
  Sn  Sn96  1  0.500000  0.750001  0.335782  1
