# generated using pymatgen
data_ZrTi96
_symmetry_space_group_name_H-M   'P 1'
_cell_length_a   9.51302000
_cell_length_b   9.35086000
_cell_length_c   18.54723000
_cell_angle_alpha   90.00000000
_cell_angle_beta   90.00000000
_cell_angle_gamma   90.00000000
_symmetry_Int_Tables_number   1
_chemical_formula_structural   ZrTi96
_chemical_formula_sum   'Zr1 Ti96'
_cell_volume   1649.86732743
_cell_formula_units_Z   1
loop_
 _symmetry_equiv_pos_site_id
 _symmetry_equiv_pos_as_xyz
  1  'x, y, z'
loop_
 _atom_site_type_symbol
 _atom_site_label
 _atom_site_symmetry_multiplicity
 _atom_site_fract_x
 _atom_site_fract_y
 _atom_site_fract_z
 _atom_site_occupancy
  Ti  Ti0  1  0.150402  0.371275  0.397391  1
  Ti  Ti1  1  0.650156  0.376642  0.399212  1
  Ti  Ti2  1  0.166611  0.885396  0.385333  1
  Ti  Ti3  1  0.660909  0.884416  0.406873  1
  Ti  Ti4  1  0.161215  0.376447  0.237177  1
  Ti  Ti5  1  0.661601  0.374399  0.235141  1
  Ti  Ti6  1  0.161539  0.874674  0.234175  1
  Ti  Ti7  1  0.663986  0.877021  0.234676  1
  Ti  Ti8  1  0.166666  0.375000  0.077689  1
  Ti  Ti9  1  0.666666  0.375000  0.077689  1
  Ti  Ti10  1  0.166666  0.875000  0.077689  1
  Ti  Ti11  1  0.666666  0.875000  0.077689  1
  Ti  Ti12  1  0.412848  0.371602  0.315263  1
  Ti  Ti13  1  0.905061  0.376446  0.317468  1
  Ti  Ti14  1  0.418291  0.876067  0.316968  1
  Ti  Ti15  1  0.905931  0.874845  0.314751  1
  Ti  Ti16  1  0.416667  0.375000  0.155379  1
  Ti  Ti17  1  0.916667  0.375000  0.155379  1
  Ti  Ti18  1  0.416667  0.875000  0.155379  1
  Ti  Ti19  1  0.916667  0.875000  0.155379  1
  Ti  Ti20  1  0.416667  0.375000  0.000000  1
  Ti  Ti21  1  0.916667  0.375000  0.000000  1
  Ti  Ti22  1  0.416667  0.875000  0.000000  1
  Ti  Ti23  1  0.916667  0.875000  0.000000  1
  Ti  Ti24  1  0.087152  0.128398  0.315262  1
  Ti  Ti25  1  0.594939  0.123554  0.317467  1
  Ti  Ti26  1  0.081709  0.623933  0.316967  1
  Ti  Ti27  1  0.594069  0.625155  0.314750  1
  Ti  Ti28  1  0.083333  0.125000  0.155379  1
  Ti  Ti29  1  0.583333  0.125000  0.155379  1
  Ti  Ti30  1  0.083333  0.625000  0.155379  1
  Ti  Ti31  1  0.583333  0.625000  0.155379  1
  Ti  Ti32  1  0.083333  0.125000  0.000000  1
  Ti  Ti33  1  0.583333  0.125000  0.000000  1
  Ti  Ti34  1  0.083333  0.625000  0.000000  1
  Ti  Ti35  1  0.583333  0.625000  0.000000  1
  Ti  Ti36  1  0.349597  0.128725  0.397391  1
  Ti  Ti37  1  0.849843  0.123358  0.399212  1
  Ti  Ti38  1  0.333388  0.614604  0.385333  1
  Ti  Ti39  1  0.839090  0.615584  0.406873  1
  Ti  Ti40  1  0.338784  0.123553  0.237177  1
  Ti  Ti41  1  0.838398  0.125601  0.235141  1
  Ti  Ti42  1  0.338460  0.625326  0.234175  1
  Ti  Ti43  1  0.836013  0.622979  0.234676  1
  Ti  Ti44  1  0.333333  0.125000  0.077689  1
  Ti  Ti45  1  0.833333  0.125000  0.077689  1
  Ti  Ti46  1  0.333333  0.625000  0.077689  1
  Ti  Ti47  1  0.833333  0.625000  0.077689  1
  Ti  Ti48  1  0.375000  0.375000  0.823738  1
  Ti  Ti49  1  0.875000  0.375000  0.823738  1
  Ti  Ti50  1  0.375000  0.875000  0.823738  1
  Ti  Ti51  1  0.875000  0.875000  0.823738  1
  Ti  Ti52  1  0.125000  0.125000  0.823738  1
  Ti  Ti53  1  0.625000  0.125000  0.823738  1
  Ti  Ti54  1  0.125000  0.625000  0.823738  1
  Ti  Ti55  1  0.625000  0.625000  0.823738  1
  Ti  Ti56  1  0.125000  0.375000  0.910084  1
  Ti  Ti57  1  0.625000  0.375000  0.910084  1
  Ti  Ti58  1  0.125000  0.875000  0.910084  1
  Ti  Ti59  1  0.625000  0.875000  0.910084  1
  Ti  Ti60  1  0.375000  0.125000  0.910084  1
  Ti  Ti61  1  0.875000  0.125000  0.910084  1
  Ti  Ti62  1  0.375000  0.625000  0.910084  1
  Ti  Ti63  1  0.875000  0.625000  0.910084  1
  Ti  Ti64  1  0.402119  0.380175  0.646720  1
  Ti  Ti65  1  0.882019  0.339807  0.647970  1
  Ti  Ti66  1  0.365819  0.876722  0.675415  1
  Ti  Ti67  1  0.882941  0.878106  0.662817  1
  Ti  Ti68  1  0.097881  0.119825  0.646720  1
  Ti  Ti69  1  0.617981  0.160193  0.647970  1
  Ti  Ti70  1  0.134181  0.623278  0.675415  1
  Ti  Ti71  1  0.617059  0.621894  0.662817  1
  Ti  Ti72  1  0.151700  0.377860  0.574674  1
  Ti  Ti73  1  0.660241  0.411821  0.557977  1
  Ti  Ti74  1  0.138918  0.866348  0.579811  1
  Ti  Ti75  1  0.556831  0.920983  0.584995  1
  Ti  Ti76  1  0.348300  0.122140  0.574674  1
  Ti  Ti77  1  0.839759  0.088179  0.557977  1
  Ti  Ti78  1  0.361082  0.633652  0.579811  1
  Ti  Ti79  1  0.943169  0.579017  0.584995  1
  Ti  Ti80  1  0.388185  0.369236  0.487718  1
  Ti  Ti81  1  0.906406  0.355779  0.486975  1
  Ti  Ti82  1  0.364758  0.862906  0.479841  1
  Ti  Ti83  1  -0.051885  -0.118481  0.467969  1
  Ti  Ti84  1  0.111815  0.130764  0.487718  1
  Ti  Ti85  1  0.593594  0.144221  0.486975  1
  Ti  Ti86  1  0.135242  0.637094  0.479841  1
  Ti  Ti87  1  0.551885  0.618481  0.467969  1
  Ti  Ti88  1  0.125000  0.875000  0.737395  1
  Ti  Ti89  1  0.625000  0.875000  0.737395  1
  Ti  Ti90  1  0.375000  0.625000  0.737395  1
  Ti  Ti91  1  0.875000  0.625000  0.737395  1
  Ti  Ti92  1  0.125000  0.375000  0.737395  1
  Ti  Ti93  1  0.625000  0.375000  0.737395  1
  Ti  Ti94  1  0.375000  0.125000  0.737395  1
  Ti  Ti95  1  0.875000  0.125000  0.737395  1
  Zr  Zr96  1  0.750000  0.750000  0.543282  1
