# generated using pymatgen
data_Ti96Al
_symmetry_space_group_name_H-M   'P 1'
_cell_length_a   9.51302000
_cell_length_b   9.35086000
_cell_length_c   18.54723000
_cell_angle_alpha   90.00000000
_cell_angle_beta   90.00000000
_cell_angle_gamma   90.00000000
_symmetry_Int_Tables_number   1
_chemical_formula_structural   Ti96Al
_chemical_formula_sum   'Ti96 Al1'
_cell_volume   1649.86732743
_cell_formula_units_Z   1
loop_
 _symmetry_equiv_pos_site_id
 _symmetry_equiv_pos_as_xyz
  1  'x, y, z'
loop_
 _atom_site_type_symbol
 _atom_site_label
 _atom_site_symmetry_multiplicity
 _atom_site_fract_x
 _atom_site_fract_y
 _atom_site_fract_z
 _atom_site_occupancy
  Ti  Ti0  1  0.144196  0.373312  0.402590  1
  Ti  Ti1  1  0.651232  0.380189  0.399566  1
  Ti  Ti2  1  0.162127  0.891471  0.387541  1
  Ti  Ti3  1  0.648528  0.900755  0.419108  1
  Ti  Ti4  1  0.162198  0.379076  0.238147  1
  Ti  Ti5  1  0.660773  0.375465  0.235402  1
  Ti  Ti6  1  0.157693  0.875620  0.235534  1
  Ti  Ti7  1  0.663364  0.878432  0.232638  1
  Ti  Ti8  1  0.166666  0.375000  0.077689  1
  Ti  Ti9  1  0.666666  0.375000  0.077689  1
  Ti  Ti10  1  0.166666  0.875000  0.077689  1
  Ti  Ti11  1  0.666666  0.875000  0.077689  1
  Ti  Ti12  1  0.412611  0.369004  0.315361  1
  Ti  Ti13  1  0.905126  0.378430  0.317124  1
  Ti  Ti14  1  0.416885  0.872044  0.318740  1
  Ti  Ti15  1  0.894503  0.870996  0.317748  1
  Ti  Ti16  1  0.416667  0.375000  0.155379  1
  Ti  Ti17  1  0.916667  0.375000  0.155379  1
  Ti  Ti18  1  0.416667  0.875000  0.155379  1
  Ti  Ti19  1  0.916667  0.875000  0.155379  1
  Ti  Ti20  1  0.416667  0.375000  0.000000  1
  Ti  Ti21  1  0.916667  0.375000  0.000000  1
  Ti  Ti22  1  0.416667  0.875000  0.000000  1
  Ti  Ti23  1  0.916667  0.875000  0.000000  1
  Ti  Ti24  1  0.087389  0.130996  0.315360  1
  Ti  Ti25  1  0.594874  0.121570  0.317123  1
  Ti  Ti26  1  0.083115  0.627956  0.318739  1
  Ti  Ti27  1  0.605497  0.629004  0.317747  1
  Ti  Ti28  1  0.083333  0.125000  0.155379  1
  Ti  Ti29  1  0.583333  0.125000  0.155379  1
  Ti  Ti30  1  0.083333  0.625000  0.155379  1
  Ti  Ti31  1  0.583333  0.625000  0.155379  1
  Ti  Ti32  1  0.083333  0.125000  0.000000  1
  Ti  Ti33  1  0.583333  0.125000  0.000000  1
  Ti  Ti34  1  0.083333  0.625000  0.000000  1
  Ti  Ti35  1  0.583333  0.625000  0.000000  1
  Ti  Ti36  1  0.355803  0.126688  0.402590  1
  Ti  Ti37  1  0.848767  0.119811  0.399566  1
  Ti  Ti38  1  0.337872  0.608529  0.387541  1
  Ti  Ti39  1  0.851471  0.599245  0.419108  1
  Ti  Ti40  1  0.337801  0.120924  0.238147  1
  Ti  Ti41  1  0.839226  0.124535  0.235402  1
  Ti  Ti42  1  0.342306  0.624380  0.235534  1
  Ti  Ti43  1  0.836635  0.621568  0.232638  1
  Ti  Ti44  1  0.333333  0.125000  0.077689  1
  Ti  Ti45  1  0.833333  0.125000  0.077689  1
  Ti  Ti46  1  0.333333  0.625000  0.077689  1
  Ti  Ti47  1  0.833333  0.625000  0.077689  1
  Ti  Ti48  1  0.375000  0.375000  0.823738  1
  Ti  Ti49  1  0.875000  0.375000  0.823738  1
  Ti  Ti50  1  0.375000  0.875000  0.823738  1
  Ti  Ti51  1  0.875000  0.875000  0.823738  1
  Ti  Ti52  1  0.125000  0.125000  0.823738  1
  Ti  Ti53  1  0.625000  0.125000  0.823738  1
  Ti  Ti54  1  0.125000  0.625000  0.823738  1
  Ti  Ti55  1  0.625000  0.625000  0.823738  1
  Ti  Ti56  1  0.125000  0.375000  0.910084  1
  Ti  Ti57  1  0.625000  0.375000  0.910084  1
  Ti  Ti58  1  0.125000  0.875000  0.910084  1
  Ti  Ti59  1  0.625000  0.875000  0.910084  1
  Ti  Ti60  1  0.375000  0.125000  0.910084  1
  Ti  Ti61  1  0.875000  0.125000  0.910084  1
  Ti  Ti62  1  0.375000  0.625000  0.910084  1
  Ti  Ti63  1  0.875000  0.625000  0.910084  1
  Ti  Ti64  1  0.404132  0.381624  0.646315  1
  Ti  Ti65  1  0.883060  0.336865  0.648717  1
  Ti  Ti66  1  0.367773  0.873485  0.673263  1
  Ti  Ti67  1  0.884830  0.869464  0.665387  1
  Ti  Ti68  1  0.095868  0.118376  0.646315  1
  Ti  Ti69  1  0.616940  0.163135  0.648717  1
  Ti  Ti70  1  0.132227  0.626515  0.673263  1
  Ti  Ti71  1  0.615170  0.630536  0.665387  1
  Ti  Ti72  1  0.154660  0.374045  0.572263  1
  Ti  Ti73  1  0.663267  0.429081  0.562902  1
  Ti  Ti74  1  0.137939  0.866957  0.578337  1
  Ti  Ti75  1  0.560032  0.929624  0.578586  1
  Ti  Ti76  1  0.345340  0.125955  0.572263  1
  Ti  Ti77  1  0.836733  0.070919  0.562902  1
  Ti  Ti78  1  0.362061  0.633043  0.578337  1
  Ti  Ti79  1  0.939968  0.570376  0.578586  1
  Ti  Ti80  1  0.396185  0.379856  0.489447  1
  Ti  Ti81  1  0.898120  0.335882  0.491923  1
  Ti  Ti82  1  0.367381  0.860030  0.478337  1
  Ti  Ti83  1  0.928613  0.866842  0.468788  1
  Ti  Ti84  1  0.103815  0.120144  0.489447  1
  Ti  Ti85  1  0.601880  0.164118  0.491923  1
  Ti  Ti86  1  0.132619  0.639970  0.478337  1
  Ti  Ti87  1  0.571387  0.633158  0.468788  1
  Ti  Ti88  1  0.125000  0.875000  0.737395  1
  Ti  Ti89  1  0.625000  0.875000  0.737395  1
  Ti  Ti90  1  0.375000  0.625000  0.737395  1
  Ti  Ti91  1  0.875000  0.625000  0.737395  1
  Ti  Ti92  1  0.125000  0.375000  0.737395  1
  Ti  Ti93  1  0.625000  0.375000  0.737395  1
  Ti  Ti94  1  0.375000  0.125000  0.737395  1
  Ti  Ti95  1  0.875000  0.125000  0.737395  1
  Al  Al96  1  0.750000  0.750000  0.553958  1
