# generated using pymatgen
data_Ti96Mo
_symmetry_space_group_name_H-M   'P 1'
_cell_length_a   9.51302000
_cell_length_b   9.35086000
_cell_length_c   18.54723000
_cell_angle_alpha   90.00000000
_cell_angle_beta   90.00000000
_cell_angle_gamma   90.00000000
_symmetry_Int_Tables_number   1
_chemical_formula_structural   Ti96Mo
_chemical_formula_sum   'Ti96 Mo1'
_cell_volume   1649.86732743
_cell_formula_units_Z   1
loop_
 _symmetry_equiv_pos_site_id
 _symmetry_equiv_pos_as_xyz
  1  'x, y, z'
loop_
 _atom_site_type_symbol
 _atom_site_label
 _atom_site_symmetry_multiplicity
 _atom_site_fract_x
 _atom_site_fract_y
 _atom_site_fract_z
 _atom_site_occupancy
  Ti  Ti0  1  0.141556  0.367068  0.402328  1
  Ti  Ti1  1  0.661316  0.357128  0.391488  1
  Ti  Ti2  1  0.155818  0.863358  0.401550  1
  Ti  Ti3  1  0.663031  0.877174  0.410819  1
  Ti  Ti4  1  0.161166  0.372723  0.237427  1
  Ti  Ti5  1  0.659370  0.371187  0.232796  1
  Ti  Ti6  1  0.160164  0.873182  0.234748  1
  Ti  Ti7  1  0.660768  0.869337  0.237692  1
  Ti  Ti8  1  0.166680  0.375063  0.077585  1
  Ti  Ti9  1  0.666655  0.375000  0.077559  1
  Ti  Ti10  1  0.166685  0.875024  0.077586  1
  Ti  Ti11  1  0.666651  0.874948  0.077634  1
  Ti  Ti12  1  0.406477  0.383584  0.316968  1
  Ti  Ti13  1  0.909430  0.381022  0.316809  1
  Ti  Ti14  1  0.402051  0.882488  0.316165  1
  Ti  Ti15  1  0.906604  0.877003  0.319048  1
  Ti  Ti16  1  0.416663  0.375187  0.155179  1
  Ti  Ti17  1  0.916661  0.374976  0.155174  1
  Ti  Ti18  1  0.416662  0.875048  0.155231  1
  Ti  Ti19  1  0.916668  0.874980  0.155177  1
  Ti  Ti20  1  0.416680  0.375089  -0.000091  1
  Ti  Ti21  1  0.916611  0.375037  -0.000063  1
  Ti  Ti22  1  0.416673  0.874974  -0.000125  1
  Ti  Ti23  1  0.916601  0.874979  -0.000085  1
  Ti  Ti24  1  0.090570  0.118980  0.316808  1
  Ti  Ti25  1  0.593523  0.116417  0.316967  1
  Ti  Ti26  1  0.093396  0.622998  0.319047  1
  Ti  Ti27  1  0.597949  0.617513  0.316164  1
  Ti  Ti28  1  0.083339  0.125038  0.155174  1
  Ti  Ti29  1  0.583336  0.124826  0.155181  1
  Ti  Ti30  1  0.083332  0.625037  0.155177  1
  Ti  Ti31  1  0.583339  0.624966  0.155231  1
  Ti  Ti32  1  0.083389  0.124972  -0.000063  1
  Ti  Ti33  1  0.583323  0.124924  -0.000090  1
  Ti  Ti34  1  0.083401  0.625036  -0.000085  1
  Ti  Ti35  1  0.583328  0.625044  -0.000125  1
  Ti  Ti36  1  0.338683  0.142873  0.391488  1
  Ti  Ti37  1  0.858443  0.132933  0.402327  1
  Ti  Ti38  1  0.336968  0.622826  0.410819  1
  Ti  Ti39  1  0.844181  0.636642  0.401550  1
  Ti  Ti40  1  0.340629  0.128817  0.232796  1
  Ti  Ti41  1  0.838833  0.127281  0.237427  1
  Ti  Ti42  1  0.339231  0.630666  0.237692  1
  Ti  Ti43  1  0.839836  0.626821  0.234748  1
  Ti  Ti44  1  0.333344  0.125014  0.077558  1
  Ti  Ti45  1  0.833319  0.124951  0.077585  1
  Ti  Ti46  1  0.333349  0.625066  0.077634  1
  Ti  Ti47  1  0.833315  0.624991  0.077587  1
  Ti  Ti48  1  0.375077  0.375022  0.823834  1
  Ti  Ti49  1  0.874969  0.374923  0.823928  1
  Ti  Ti50  1  0.375052  0.875120  0.823739  1
  Ti  Ti51  1  0.874938  0.874977  0.823912  1
  Ti  Ti52  1  0.125033  0.125055  0.823927  1
  Ti  Ti53  1  0.624935  0.124978  0.823835  1
  Ti  Ti54  1  0.125064  0.625016  0.823913  1
  Ti  Ti55  1  0.624952  0.624870  0.823742  1
  Ti  Ti56  1  0.125031  0.375017  0.910154  1
  Ti  Ti57  1  0.624991  0.374982  0.910103  1
  Ti  Ti58  1  0.125066  0.875026  0.910117  1
  Ti  Ti59  1  0.624954  0.874980  0.910061  1
  Ti  Ti60  1  0.375012  0.125012  0.910102  1
  Ti  Ti61  1  0.874975  0.124977  0.910152  1
  Ti  Ti62  1  0.375049  0.625016  0.910060  1
  Ti  Ti63  1  0.874941  0.624971  0.910118  1
  Ti  Ti64  1  0.380851  0.374623  0.668177  1
  Ti  Ti65  1  0.884606  0.393777  0.648614  1
  Ti  Ti66  1  0.379567  0.883474  0.661581  1
  Ti  Ti67  1  0.904428  0.881578  0.651206  1
  Ti  Ti68  1  0.115392  0.106218  0.648614  1
  Ti  Ti69  1  0.619147  0.125370  0.668177  1
  Ti  Ti70  1  0.095568  0.618415  0.651207  1
  Ti  Ti71  1  0.620432  0.616520  0.661582  1
  Ti  Ti72  1  0.135765  0.356743  0.571727  1
  Ti  Ti73  1  0.634628  0.361782  0.582084  1
  Ti  Ti74  1  0.163405  0.850310  0.564167  1
  Ti  Ti75  1  0.671319  0.916934  0.570742  1
  Ti  Ti76  1  0.365372  0.138216  0.582084  1
  Ti  Ti77  1  0.864234  0.143255  0.571727  1
  Ti  Ti78  1  0.328680  0.583064  0.570742  1
  Ti  Ti79  1  0.836594  0.649687  0.564167  1
  Ti  Ti80  1  0.395746  0.357304  0.483540  1
  Ti  Ti81  1  0.881958  0.386460  0.490883  1
  Ti  Ti82  1  0.389178  0.934719  0.477277  1
  Ti  Ti83  1  0.918322  0.888170  0.485677  1
  Ti  Ti84  1  0.118042  0.113539  0.490883  1
  Ti  Ti85  1  0.604254  0.142695  0.483540  1
  Ti  Ti86  1  0.081678  0.611829  0.485678  1
  Ti  Ti87  1  0.610822  0.565280  0.477277  1
  Ti  Ti88  1  0.125350  0.875286  0.737701  1
  Ti  Ti89  1  0.624859  0.874881  0.737543  1
  Ti  Ti90  1  0.375136  0.625100  0.737540  1
  Ti  Ti91  1  0.874639  0.624687  0.737711  1
  Ti  Ti92  1  0.125025  0.374921  0.737757  1
  Ti  Ti93  1  0.625243  0.374837  0.737610  1
  Ti  Ti94  1  0.374751  0.125143  0.737609  1
  Ti  Ti95  1  0.874961  0.125048  0.737755  1
  Mo  Mo96  1  0.500000  0.749999  0.527759  1
