# generated using pymatgen
data_Ti
_symmetry_space_group_name_H-M   'P 1'
_cell_length_a   9.51302000
_cell_length_b   9.35086000
_cell_length_c   18.54723000
_cell_angle_alpha   90.00000000
_cell_angle_beta   90.00000000
_cell_angle_gamma   90.00000000
_symmetry_Int_Tables_number   1
_chemical_formula_structural   Ti
_chemical_formula_sum   Ti97
_cell_volume   1649.86732743
_cell_formula_units_Z   97
loop_
 _symmetry_equiv_pos_site_id
 _symmetry_equiv_pos_as_xyz
  1  'x, y, z'
loop_
 _atom_site_type_symbol
 _atom_site_label
 _atom_site_symmetry_multiplicity
 _atom_site_fract_x
 _atom_site_fract_y
 _atom_site_fract_z
 _atom_site_occupancy
  Ti  Ti0  1  0.151261  0.374629  0.400645  1
  Ti  Ti1  1  0.664491  0.363761  0.388353  1
  Ti  Ti2  1  0.151396  0.870937  0.400446  1
  Ti  Ti3  1  0.655246  0.858705  0.413257  1
  Ti  Ti4  1  0.162622  0.370598  0.237225  1
  Ti  Ti5  1  0.657553  0.373673  0.235277  1
  Ti  Ti6  1  0.161052  0.873925  0.235842  1
  Ti  Ti7  1  0.662470  0.873830  0.234924  1
  Ti  Ti8  1  0.166666  0.375000  0.077689  1
  Ti  Ti9  1  0.666666  0.375000  0.077689  1
  Ti  Ti10  1  0.166666  0.875000  0.077689  1
  Ti  Ti11  1  0.666666  0.875000  0.077689  1
  Ti  Ti12  1  0.408915  0.386174  0.319020  1
  Ti  Ti13  1  0.914502  0.378895  0.317111  1
  Ti  Ti14  1  0.404099  0.871384  0.317339  1
  Ti  Ti15  1  0.903096  0.874569  0.318344  1
  Ti  Ti16  1  0.416667  0.375000  0.155379  1
  Ti  Ti17  1  0.916667  0.375000  0.155379  1
  Ti  Ti18  1  0.416667  0.875000  0.155379  1
  Ti  Ti19  1  0.916667  0.875000  0.155379  1
  Ti  Ti20  1  0.416667  0.375000  0.000000  1
  Ti  Ti21  1  0.916667  0.375000  0.000000  1
  Ti  Ti22  1  0.416667  0.875000  0.000000  1
  Ti  Ti23  1  0.916667  0.875000  0.000000  1
  Ti  Ti24  1  0.085498  0.121105  0.317110  1
  Ti  Ti25  1  0.591085  0.113826  0.319019  1
  Ti  Ti26  1  0.096904  0.625431  0.318343  1
  Ti  Ti27  1  0.595901  0.628616  0.317338  1
  Ti  Ti28  1  0.083333  0.125000  0.155379  1
  Ti  Ti29  1  0.583333  0.125000  0.155379  1
  Ti  Ti30  1  0.083333  0.625000  0.155379  1
  Ti  Ti31  1  0.583333  0.625000  0.155379  1
  Ti  Ti32  1  0.083333  0.125000  0.000000  1
  Ti  Ti33  1  0.583333  0.125000  0.000000  1
  Ti  Ti34  1  0.083333  0.625000  0.000000  1
  Ti  Ti35  1  0.583333  0.625000  0.000000  1
  Ti  Ti36  1  0.335508  0.136239  0.388353  1
  Ti  Ti37  1  0.848738  0.125371  0.400645  1
  Ti  Ti38  1  0.344753  0.641295  0.413257  1
  Ti  Ti39  1  0.848603  0.629063  0.400446  1
  Ti  Ti40  1  0.342446  0.126327  0.235277  1
  Ti  Ti41  1  0.837377  0.129402  0.237225  1
  Ti  Ti42  1  0.337529  0.626170  0.234924  1
  Ti  Ti43  1  0.838947  0.626075  0.235842  1
  Ti  Ti44  1  0.333333  0.125000  0.077689  1
  Ti  Ti45  1  0.833333  0.125000  0.077689  1
  Ti  Ti46  1  0.333333  0.625000  0.077689  1
  Ti  Ti47  1  0.833333  0.625000  0.077689  1
  Ti  Ti48  1  0.375000  0.375000  0.823738  1
  Ti  Ti49  1  0.875000  0.375000  0.823738  1
  Ti  Ti50  1  0.375000  0.875000  0.823738  1
  Ti  Ti51  1  0.875000  0.875000  0.823738  1
  Ti  Ti52  1  0.125000  0.125000  0.823738  1
  Ti  Ti53  1  0.625000  0.125000  0.823738  1
  Ti  Ti54  1  0.125000  0.625000  0.823738  1
  Ti  Ti55  1  0.625000  0.625000  0.823738  1
  Ti  Ti56  1  0.125000  0.375000  0.910084  1
  Ti  Ti57  1  0.625000  0.375000  0.910084  1
  Ti  Ti58  1  0.125000  0.875000  0.910084  1
  Ti  Ti59  1  0.625000  0.875000  0.910084  1
  Ti  Ti60  1  0.375000  0.125000  0.910084  1
  Ti  Ti61  1  0.875000  0.125000  0.910084  1
  Ti  Ti62  1  0.375000  0.625000  0.910084  1
  Ti  Ti63  1  0.875000  0.625000  0.910084  1
  Ti  Ti64  1  0.381511  0.368800  0.669925  1
  Ti  Ti65  1  0.882335  0.394452  0.647892  1
  Ti  Ti66  1  0.369487  0.886628  0.668692  1
  Ti  Ti67  1  0.908100  0.878612  0.647898  1
  Ti  Ti68  1  0.117665  0.105548  0.647892  1
  Ti  Ti69  1  0.618489  0.131200  0.669925  1
  Ti  Ti70  1  0.091900  0.621388  0.647898  1
  Ti  Ti71  1  0.630513  0.613372  0.668692  1
  Ti  Ti72  1  0.139016  0.356034  0.573418  1
  Ti  Ti73  1  0.632029  0.370960  0.578384  1
  Ti  Ti74  1  0.173422  0.852416  0.560291  1
  Ti  Ti75  1  0.673641  0.924017  0.570544  1
  Ti  Ti76  1  0.367971  0.129040  0.578384  1
  Ti  Ti77  1  0.860984  0.143966  0.573418  1
  Ti  Ti78  1  0.326359  0.575983  0.570544  1
  Ti  Ti79  1  0.826578  0.647584  0.560291  1
  Ti  Ti80  1  0.396235  0.358726  0.478186  1
  Ti  Ti81  1  0.882998  0.383623  0.489337  1
  Ti  Ti82  1  0.397551  0.916212  0.472170  1
  Ti  Ti83  1  0.915791  0.887742  0.486068  1
  Ti  Ti84  1  0.117002  0.116377  0.489337  1
  Ti  Ti85  1  0.603765  0.141274  0.478186  1
  Ti  Ti86  1  0.084209  0.612258  0.486068  1
  Ti  Ti87  1  0.602449  0.583788  0.472170  1
  Ti  Ti88  1  0.125000  0.875000  0.737395  1
  Ti  Ti89  1  0.625000  0.875000  0.737395  1
  Ti  Ti90  1  0.375000  0.625000  0.737395  1
  Ti  Ti91  1  0.875000  0.625000  0.737395  1
  Ti  Ti92  1  0.125000  0.375000  0.737395  1
  Ti  Ti93  1  0.625000  0.375000  0.737395  1
  Ti  Ti94  1  0.375000  0.125000  0.737395  1
  Ti  Ti95  1  0.875000  0.125000  0.737395  1
  Ti  Ti96  1  0.500000  0.750000  0.570322  1
