# generated using pymatgen
data_ZrTi96
_symmetry_space_group_name_H-M   'P 1'
_cell_length_a   9.51302000
_cell_length_b   9.35086000
_cell_length_c   18.54723000
_cell_angle_alpha   90.00000000
_cell_angle_beta   90.00000000
_cell_angle_gamma   90.00000000
_symmetry_Int_Tables_number   1
_chemical_formula_structural   ZrTi96
_chemical_formula_sum   'Zr1 Ti96'
_cell_volume   1649.86732743
_cell_formula_units_Z   1
loop_
 _symmetry_equiv_pos_site_id
 _symmetry_equiv_pos_as_xyz
  1  'x, y, z'
loop_
 _atom_site_type_symbol
 _atom_site_label
 _atom_site_symmetry_multiplicity
 _atom_site_fract_x
 _atom_site_fract_y
 _atom_site_fract_z
 _atom_site_occupancy
  Ti  Ti0  1  0.151318  0.386999  0.403048  1
  Ti  Ti1  1  0.651958  0.330867  0.408125  1
  Ti  Ti2  1  0.125152  0.853819  0.424434  1
  Ti  Ti3  1  0.657414  0.858407  0.415441  1
  Ti  Ti4  1  0.149940  0.364456  0.242168  1
  Ti  Ti5  1  0.645665  0.361510  0.241695  1
  Ti  Ti6  1  0.159850  0.863552  0.231869  1
  Ti  Ti7  1  0.683930  0.902308  0.230439  1
  Ti  Ti8  1  0.166666  0.375000  0.077689  1
  Ti  Ti9  1  0.666666  0.375000  0.077689  1
  Ti  Ti10  1  0.166666  0.875000  0.077689  1
  Ti  Ti11  1  0.666666  0.875000  0.077689  1
  Ti  Ti12  1  0.414574  0.404293  0.330695  1
  Ti  Ti13  1  0.901593  0.373795  0.324234  1
  Ti  Ti14  1  0.319427  0.939284  0.342179  1
  Ti  Ti15  1  0.909138  0.870377  0.319980  1
  Ti  Ti16  1  0.416667  0.375000  0.155379  1
  Ti  Ti17  1  0.916667  0.375000  0.155379  1
  Ti  Ti18  1  0.416667  0.875000  0.155379  1
  Ti  Ti19  1  0.916667  0.875000  0.155379  1
  Ti  Ti20  1  0.416667  0.375000  0.000000  1
  Ti  Ti21  1  0.916667  0.375000  0.000000  1
  Ti  Ti22  1  0.416667  0.875000  0.000000  1
  Ti  Ti23  1  0.916667  0.875000  0.000000  1
  Ti  Ti24  1  0.098407  0.126205  0.324233  1
  Ti  Ti25  1  0.585426  0.095707  0.330694  1
  Ti  Ti26  1  0.090862  0.629623  0.319979  1
  Ti  Ti27  1  0.680573  0.560716  0.342178  1
  Ti  Ti28  1  0.083333  0.125000  0.155379  1
  Ti  Ti29  1  0.583333  0.125000  0.155379  1
  Ti  Ti30  1  0.083333  0.625000  0.155379  1
  Ti  Ti31  1  0.583333  0.625000  0.155379  1
  Ti  Ti32  1  0.083333  0.125000  0.000000  1
  Ti  Ti33  1  0.583333  0.125000  0.000000  1
  Ti  Ti34  1  0.083333  0.625000  0.000000  1
  Ti  Ti35  1  0.583333  0.625000  0.000000  1
  Ti  Ti36  1  0.348041  0.169133  0.408125  1
  Ti  Ti37  1  0.848681  0.113001  0.403048  1
  Ti  Ti38  1  0.342585  0.641593  0.415441  1
  Ti  Ti39  1  0.874847  0.646181  0.424434  1
  Ti  Ti40  1  0.354334  0.138490  0.241695  1
  Ti  Ti41  1  0.850059  0.135544  0.242168  1
  Ti  Ti42  1  0.316069  0.597692  0.230439  1
  Ti  Ti43  1  0.840149  0.636448  0.231869  1
  Ti  Ti44  1  0.333333  0.125000  0.077689  1
  Ti  Ti45  1  0.833333  0.125000  0.077689  1
  Ti  Ti46  1  0.333333  0.625000  0.077689  1
  Ti  Ti47  1  0.833333  0.625000  0.077689  1
  Ti  Ti48  1  0.375000  0.375000  0.823738  1
  Ti  Ti49  1  0.875000  0.375000  0.823738  1
  Ti  Ti50  1  0.375000  0.875000  0.823738  1
  Ti  Ti51  1  0.875000  0.875000  0.823738  1
  Ti  Ti52  1  0.125000  0.125000  0.823738  1
  Ti  Ti53  1  0.625000  0.125000  0.823738  1
  Ti  Ti54  1  0.125000  0.625000  0.823738  1
  Ti  Ti55  1  0.625000  0.625000  0.823738  1
  Ti  Ti56  1  0.125000  0.375000  0.910084  1
  Ti  Ti57  1  0.625000  0.375000  0.910084  1
  Ti  Ti58  1  0.125000  0.875000  0.910084  1
  Ti  Ti59  1  0.625000  0.875000  0.910084  1
  Ti  Ti60  1  0.375000  0.125000  0.910084  1
  Ti  Ti61  1  0.875000  0.125000  0.910084  1
  Ti  Ti62  1  0.375000  0.625000  0.910084  1
  Ti  Ti63  1  0.875000  0.625000  0.910084  1
  Ti  Ti64  1  0.396773  0.384055  0.652935  1
  Ti  Ti65  1  0.899041  0.385494  0.655771  1
  Ti  Ti66  1  0.398820  0.883187  0.653581  1
  Ti  Ti67  1  0.891793  0.886400  0.655606  1
  Ti  Ti68  1  0.100959  0.114506  0.655771  1
  Ti  Ti69  1  0.603227  0.115945  0.652935  1
  Ti  Ti70  1  0.108207  0.613600  0.655606  1
  Ti  Ti71  1  0.601180  0.616813  0.653581  1
  Ti  Ti72  1  0.148822  0.357888  0.576319  1
  Ti  Ti73  1  0.652114  0.366395  0.576653  1
  Ti  Ti74  1  0.152035  0.868501  0.578895  1
  Ti  Ti75  1  0.648284  0.862699  0.571148  1
  Ti  Ti76  1  0.347886  0.133605  0.576653  1
  Ti  Ti77  1  0.851178  0.142112  0.576319  1
  Ti  Ti78  1  0.351716  0.637301  0.571148  1
  Ti  Ti79  1  0.847965  0.631499  0.578895  1
  Ti  Ti80  1  0.397850  0.385621  0.495086  1
  Ti  Ti81  1  0.896566  0.373286  0.485316  1
  Ti  Ti82  1  0.400111  0.896845  0.486563  1
  Ti  Ti83  1  0.903987  0.894442  0.505174  1
  Ti  Ti84  1  0.103434  0.126714  0.485316  1
  Ti  Ti85  1  0.602150  0.114379  0.495086  1
  Ti  Ti86  1  0.096013  0.605558  0.505174  1
  Ti  Ti87  1  0.599889  0.603155  0.486563  1
  Ti  Ti88  1  0.125000  0.875000  0.737395  1
  Ti  Ti89  1  0.625000  0.875000  0.737395  1
  Ti  Ti90  1  0.375000  0.625000  0.737395  1
  Ti  Ti91  1  0.875000  0.625000  0.737395  1
  Ti  Ti92  1  0.125000  0.375000  0.737395  1
  Ti  Ti93  1  0.625000  0.375000  0.737395  1
  Ti  Ti94  1  0.375000  0.125000  0.737395  1
  Ti  Ti95  1  0.875000  0.125000  0.737395  1
  Zr  Zr96  1  0.500000  0.750000  0.296761  1
