# generated using pymatgen
data_ZrTi96
_symmetry_space_group_name_H-M   'P 1'
_cell_length_a   9.51302000
_cell_length_b   9.35086000
_cell_length_c   18.54723000
_cell_angle_alpha   90.00000000
_cell_angle_beta   90.00000000
_cell_angle_gamma   90.00000000
_symmetry_Int_Tables_number   1
_chemical_formula_structural   ZrTi96
_chemical_formula_sum   'Zr1 Ti96'
_cell_volume   1649.86732743
_cell_formula_units_Z   1
loop_
 _symmetry_equiv_pos_site_id
 _symmetry_equiv_pos_as_xyz
  1  'x, y, z'
loop_
 _atom_site_type_symbol
 _atom_site_label
 _atom_site_symmetry_multiplicity
 _atom_site_fract_x
 _atom_site_fract_y
 _atom_site_fract_z
 _atom_site_occupancy
  Ti  Ti0  1  0.145774  0.373628  0.404708  1
  Ti  Ti1  1  0.641315  0.335441  0.407827  1
  Ti  Ti2  1  0.135383  0.848542  0.407219  1
  Ti  Ti3  1  0.684554  0.895890  0.405510  1
  Ti  Ti4  1  0.151018  0.367647  0.239608  1
  Ti  Ti5  1  0.655516  0.364631  0.236380  1
  Ti  Ti6  1  0.160038  0.869553  0.232151  1
  Ti  Ti7  1  0.673460  0.886360  0.232486  1
  Ti  Ti8  1  0.166650  0.375105  0.077441  1
  Ti  Ti9  1  0.666753  0.374915  0.077359  1
  Ti  Ti10  1  0.166675  0.875017  0.077441  1
  Ti  Ti11  1  0.666594  0.874943  0.077519  1
  Ti  Ti12  1  0.409324  0.387986  0.319234  1
  Ti  Ti13  1  0.894643  0.377782  0.327018  1
  Ti  Ti14  1  0.355903  0.925301  0.328583  1
  Ti  Ti15  1  0.914702  0.879360  0.314455  1
  Ti  Ti16  1  0.416751  0.375222  0.154899  1
  Ti  Ti17  1  0.916834  0.374709  0.154926  1
  Ti  Ti18  1  0.416598  0.874933  0.155262  1
  Ti  Ti19  1  0.916629  0.875160  0.154880  1
  Ti  Ti20  1  0.416660  0.375042  -0.000126  1
  Ti  Ti21  1  0.916653  0.374967  -0.000156  1
  Ti  Ti22  1  0.416655  0.874969  -0.000031  1
  Ti  Ti23  1  0.916641  0.874989  -0.000150  1
  Ti  Ti24  1  0.105357  0.122219  0.327017  1
  Ti  Ti25  1  0.590676  0.112016  0.319233  1
  Ti  Ti26  1  0.085298  0.620642  0.314454  1
  Ti  Ti27  1  0.644097  0.574701  0.328582  1
  Ti  Ti28  1  0.083164  0.125321  0.154923  1
  Ti  Ti29  1  0.583249  0.124809  0.154901  1
  Ti  Ti30  1  0.083371  0.624871  0.154881  1
  Ti  Ti31  1  0.583404  0.625083  0.155261  1
  Ti  Ti32  1  0.083348  0.125039  -0.000157  1
  Ti  Ti33  1  0.583340  0.124969  -0.000125  1
  Ti  Ti34  1  0.083359  0.625021  -0.000149  1
  Ti  Ti35  1  0.583347  0.625032  -0.000033  1
  Ti  Ti36  1  0.358684  0.164559  0.407827  1
  Ti  Ti37  1  0.854225  0.126372  0.404708  1
  Ti  Ti38  1  0.315445  0.604111  0.405510  1
  Ti  Ti39  1  0.864616  0.651459  0.407219  1
  Ti  Ti40  1  0.344483  0.135375  0.236380  1
  Ti  Ti41  1  0.848981  0.132359  0.239608  1
  Ti  Ti42  1  0.326539  0.613645  0.232486  1
  Ti  Ti43  1  0.839961  0.630455  0.232151  1
  Ti  Ti44  1  0.333247  0.125109  0.077359  1
  Ti  Ti45  1  0.833348  0.124916  0.077443  1
  Ti  Ti46  1  0.333405  0.625077  0.077518  1
  Ti  Ti47  1  0.833325  0.625006  0.077440  1
  Ti  Ti48  1  0.375019  0.375076  0.823852  1
  Ti  Ti49  1  0.874957  0.374983  0.823857  1
  Ti  Ti50  1  0.375021  0.874944  0.823771  1
  Ti  Ti51  1  0.875004  0.874937  0.823756  1
  Ti  Ti52  1  0.125044  0.124997  0.823857  1
  Ti  Ti53  1  0.624983  0.124907  0.823853  1
  Ti  Ti54  1  0.124998  0.625050  0.823757  1
  Ti  Ti55  1  0.624983  0.625039  0.823770  1
  Ti  Ti56  1  0.125034  0.375107  0.910129  1
  Ti  Ti57  1  0.624997  0.375086  0.910168  1
  Ti  Ti58  1  0.125061  0.874927  0.910150  1
  Ti  Ti59  1  0.624968  0.874899  0.910212  1
  Ti  Ti60  1  0.375008  0.124896  0.910170  1
  Ti  Ti61  1  0.874972  0.124877  0.910130  1
  Ti  Ti62  1  0.375033  0.625077  0.910212  1
  Ti  Ti63  1  0.874944  0.625053  0.910150  1
  Ti  Ti64  1  0.393541  0.387745  0.655553  1
  Ti  Ti65  1  0.896929  0.376450  0.652473  1
  Ti  Ti66  1  0.396774  0.888497  0.649343  1
  Ti  Ti67  1  0.886500  0.885329  0.663682  1
  Ti  Ti68  1  0.103070  0.123546  0.652473  1
  Ti  Ti69  1  0.606458  0.112250  0.655553  1
  Ti  Ti70  1  0.113498  0.614666  0.663682  1
  Ti  Ti71  1  0.603226  0.611499  0.649343  1
  Ti  Ti72  1  0.150339  0.372907  0.571908  1
  Ti  Ti73  1  0.649774  0.350599  0.576608  1
  Ti  Ti74  1  0.135174  0.863715  0.583681  1
  Ti  Ti75  1  0.652805  0.860921  0.574395  1
  Ti  Ti76  1  0.350226  0.149400  0.576608  1
  Ti  Ti77  1  0.849661  0.127092  0.571907  1
  Ti  Ti78  1  0.347194  0.639078  0.574395  1
  Ti  Ti79  1  0.864826  0.636283  0.583681  1
  Ti  Ti80  1  0.406697  0.395361  0.496441  1
  Ti  Ti81  1  0.897453  0.371715  0.487327  1
  Ti  Ti82  1  0.356703  0.917061  0.493308  1
  Ti  Ti83  1  0.911292  0.886097  0.494676  1
  Ti  Ti84  1  0.102547  0.128285  0.487327  1
  Ti  Ti85  1  0.593303  0.104639  0.496441  1
  Ti  Ti86  1  0.088707  0.613902  0.494676  1
  Ti  Ti87  1  0.643297  0.582939  0.493308  1
  Ti  Ti88  1  0.125003  0.875025  0.737598  1
  Ti  Ti89  1  0.624992  0.874957  0.737567  1
  Ti  Ti90  1  0.375003  0.625025  0.737566  1
  Ti  Ti91  1  0.874993  0.624956  0.737598  1
  Ti  Ti92  1  0.124895  0.374970  0.737644  1
  Ti  Ti93  1  0.624974  0.374930  0.737704  1
  Ti  Ti94  1  0.375017  0.125043  0.737704  1
  Ti  Ti95  1  0.875099  0.125008  0.737643  1
  Zr  Zr96  1  0.500000  0.750000  0.377721  1
