# generated using pymatgen
data_Ti96Mo
_symmetry_space_group_name_H-M   'P 1'
_cell_length_a   9.51302000
_cell_length_b   9.35086000
_cell_length_c   18.54723000
_cell_angle_alpha   90.00000000
_cell_angle_beta   90.00000000
_cell_angle_gamma   90.00000000
_symmetry_Int_Tables_number   1
_chemical_formula_structural   Ti96Mo
_chemical_formula_sum   'Ti96 Mo1'
_cell_volume   1649.86732743
_cell_formula_units_Z   1
loop_
 _symmetry_equiv_pos_site_id
 _symmetry_equiv_pos_as_xyz
  1  'x, y, z'
loop_
 _atom_site_type_symbol
 _atom_site_label
 _atom_site_symmetry_multiplicity
 _atom_site_fract_x
 _atom_site_fract_y
 _atom_site_fract_z
 _atom_site_occupancy
  Ti  Ti0  1  0.148445  0.374474  0.403896  1
  Ti  Ti1  1  0.655999  0.347222  0.396198  1
  Ti  Ti2  1  0.136035  0.861036  0.396601  1
  Ti  Ti3  1  0.663056  0.859365  0.404214  1
  Ti  Ti4  1  0.162773  0.370371  0.235866  1
  Ti  Ti5  1  0.657669  0.374429  0.234947  1
  Ti  Ti6  1  0.163148  0.873890  0.235252  1
  Ti  Ti7  1  0.657493  0.871875  0.235560  1
  Ti  Ti8  1  0.166669  0.375028  0.077680  1
  Ti  Ti9  1  0.666673  0.375009  0.077668  1
  Ti  Ti10  1  0.166668  0.874984  0.077703  1
  Ti  Ti11  1  0.666675  0.874978  0.077685  1
  Ti  Ti12  1  0.405773  0.386500  0.317733  1
  Ti  Ti13  1  0.906438  0.376260  0.318532  1
  Ti  Ti14  1  0.402486  0.884462  0.324403  1
  Ti  Ti15  1  0.906533  0.881206  0.312556  1
  Ti  Ti16  1  0.416679  0.374988  0.155291  1
  Ti  Ti17  1  0.916677  0.374991  0.155284  1
  Ti  Ti18  1  0.416662  0.874997  0.155324  1
  Ti  Ti19  1  0.916685  0.874963  0.155309  1
  Ti  Ti20  1  0.416663  0.375023  -0.000010  1
  Ti  Ti21  1  0.916645  0.375016  -0.000006  1
  Ti  Ti22  1  0.416663  0.874983  -0.000021  1
  Ti  Ti23  1  0.916656  0.874984  -0.000009  1
  Ti  Ti24  1  0.093562  0.123740  0.318531  1
  Ti  Ti25  1  0.594227  0.113501  0.317732  1
  Ti  Ti26  1  0.093467  0.618795  0.312555  1
  Ti  Ti27  1  0.597514  0.615538  0.324402  1
  Ti  Ti28  1  0.083323  0.125015  0.155284  1
  Ti  Ti29  1  0.583321  0.125017  0.155292  1
  Ti  Ti30  1  0.083315  0.625043  0.155309  1
  Ti  Ti31  1  0.583338  0.625008  0.155324  1
  Ti  Ti32  1  0.083356  0.124989  -0.000005  1
  Ti  Ti33  1  0.583338  0.124983  -0.000009  1
  Ti  Ti34  1  0.083344  0.625023  -0.000009  1
  Ti  Ti35  1  0.583337  0.625024  -0.000020  1
  Ti  Ti36  1  0.344000  0.152778  0.396198  1
  Ti  Ti37  1  0.851554  0.125526  0.403896  1
  Ti  Ti38  1  0.336943  0.640635  0.404214  1
  Ti  Ti39  1  0.863964  0.638964  0.396601  1
  Ti  Ti40  1  0.342331  0.125572  0.234947  1
  Ti  Ti41  1  0.837226  0.129630  0.235866  1
  Ti  Ti42  1  0.342506  0.628126  0.235560  1
  Ti  Ti43  1  0.836851  0.626111  0.235252  1
  Ti  Ti44  1  0.333326  0.124995  0.077668  1
  Ti  Ti45  1  0.833331  0.124977  0.077680  1
  Ti  Ti46  1  0.333324  0.625028  0.077685  1
  Ti  Ti47  1  0.833331  0.625020  0.077703  1
  Ti  Ti48  1  0.375002  0.375028  0.823876  1
  Ti  Ti49  1  0.874978  0.374955  0.823863  1
  Ti  Ti50  1  0.375033  0.874942  0.823779  1
  Ti  Ti51  1  0.875039  0.874969  0.823825  1
  Ti  Ti52  1  0.125025  0.125040  0.823863  1
  Ti  Ti53  1  0.625004  0.124975  0.823876  1
  Ti  Ti54  1  0.124964  0.625032  0.823826  1
  Ti  Ti55  1  0.624969  0.625052  0.823780  1
  Ti  Ti56  1  0.124981  0.375023  0.910148  1
  Ti  Ti57  1  0.625006  0.375011  0.910150  1
  Ti  Ti58  1  0.125015  0.874970  0.910125  1
  Ti  Ti59  1  0.624992  0.874960  0.910122  1
  Ti  Ti60  1  0.374997  0.124989  0.910150  1
  Ti  Ti61  1  0.875024  0.124977  0.910148  1
  Ti  Ti62  1  0.375011  0.625041  0.910122  1
  Ti  Ti63  1  0.874988  0.625031  0.910125  1
  Ti  Ti64  1  0.385694  0.375999  0.666118  1
  Ti  Ti65  1  0.884394  0.383985  0.646914  1
  Ti  Ti66  1  0.384402  0.891177  0.653365  1
  Ti  Ti67  1  0.896385  0.882593  0.659632  1
  Ti  Ti68  1  0.115605  0.116013  0.646914  1
  Ti  Ti69  1  0.614305  0.123998  0.666118  1
  Ti  Ti70  1  0.103613  0.617404  0.659632  1
  Ti  Ti71  1  0.615597  0.608820  0.653365  1
  Ti  Ti72  1  0.142546  0.365256  0.570292  1
  Ti  Ti73  1  0.633163  0.348061  0.574194  1
  Ti  Ti74  1  0.146657  0.853196  0.573227  1
  Ti  Ti75  1  0.668012  0.901503  0.576458  1
  Ti  Ti76  1  0.366836  0.151938  0.574194  1
  Ti  Ti77  1  0.857454  0.134743  0.570292  1
  Ti  Ti78  1  0.331988  0.598496  0.576457  1
  Ti  Ti79  1  0.853343  0.646803  0.573228  1
  Ti  Ti80  1  0.403888  0.389058  0.481495  1
  Ti  Ti81  1  0.891231  0.379704  0.488987  1
  Ti  Ti82  1  0.354374  -0.073155  0.480273  1
  Ti  Ti83  1  0.912271  0.883946  0.487862  1
  Ti  Ti84  1  0.108769  0.120295  0.488987  1
  Ti  Ti85  1  0.596111  0.110941  0.481495  1
  Ti  Ti86  1  0.087729  0.616053  0.487862  1
  Ti  Ti87  1  0.645626  0.573155  0.480274  1
  Ti  Ti88  1  0.125381  0.875030  0.737641  1
  Ti  Ti89  1  0.625052  0.874783  0.737637  1
  Ti  Ti90  1  0.374940  0.625204  0.737634  1
  Ti  Ti91  1  0.874612  0.624958  0.737645  1
  Ti  Ti92  1  0.124826  0.374836  0.737646  1
  Ti  Ti93  1  0.625106  0.374774  0.737693  1
  Ti  Ti94  1  0.374886  0.125209  0.737692  1
  Ti  Ti95  1  0.875169  0.125150  0.737642  1
  Mo  Mo96  1  0.500000  0.750000  0.525168  1
