# generated using pymatgen
data_Ti96Nb
_symmetry_space_group_name_H-M   'P 1'
_cell_length_a   9.51302000
_cell_length_b   9.35086000
_cell_length_c   18.54723000
_cell_angle_alpha   90.00000000
_cell_angle_beta   90.00000000
_cell_angle_gamma   90.00000000
_symmetry_Int_Tables_number   1
_chemical_formula_structural   Ti96Nb
_chemical_formula_sum   'Ti96 Nb1'
_cell_volume   1649.86732743
_cell_formula_units_Z   1
loop_
 _symmetry_equiv_pos_site_id
 _symmetry_equiv_pos_as_xyz
  1  'x, y, z'
loop_
 _atom_site_type_symbol
 _atom_site_label
 _atom_site_symmetry_multiplicity
 _atom_site_fract_x
 _atom_site_fract_y
 _atom_site_fract_z
 _atom_site_occupancy
  Ti  Ti0  1  0.140417  0.378491  0.407007  1
  Ti  Ti1  1  0.647656  0.361386  0.408294  1
  Ti  Ti2  1  0.168478  0.884393  0.401159  1
  Ti  Ti3  1  0.627515  0.939303  0.417723  1
  Ti  Ti4  1  0.158905  0.378543  0.235833  1
  Ti  Ti5  1  0.659637  0.373931  0.231856  1
  Ti  Ti6  1  0.164552  0.876264  0.236645  1
  Ti  Ti7  1  0.654000  0.887898  0.232235  1
  Ti  Ti8  1  0.166649  0.375000  0.077452  1
  Ti  Ti9  1  0.666704  0.375014  0.077511  1
  Ti  Ti10  1  0.166680  0.874993  0.077451  1
  Ti  Ti11  1  0.666662  0.875016  0.077613  1
  Ti  Ti12  1  0.391663  0.361240  0.321018  1
  Ti  Ti13  1  0.904603  0.362478  0.315125  1
  Ti  Ti14  1  0.416269  0.860989  0.321265  1
  Ti  Ti15  1  0.929606  0.910467  0.322021  1
  Ti  Ti16  1  0.416673  0.375020  0.155003  1
  Ti  Ti17  1  0.916741  0.375005  0.155083  1
  Ti  Ti18  1  0.416734  0.875125  0.155119  1
  Ti  Ti19  1  0.916563  0.874943  0.155121  1
  Ti  Ti20  1  0.416677  0.375012  -0.000131  1
  Ti  Ti21  1  0.916626  0.375006  -0.000097  1
  Ti  Ti22  1  0.416713  0.875010  -0.000088  1
  Ti  Ti23  1  0.916600  0.874984  -0.000070  1
  Ti  Ti24  1  0.108337  0.138761  0.321017  1
  Ti  Ti25  1  0.595397  0.137524  0.315124  1
  Ti  Ti26  1  0.083731  0.639012  0.321264  1
  Ti  Ti27  1  0.570394  0.589535  0.322021  1
  Ti  Ti28  1  0.083333  0.125004  0.155003  1
  Ti  Ti29  1  0.583256  0.125015  0.155083  1
  Ti  Ti30  1  0.083269  0.624893  0.155120  1
  Ti  Ti31  1  0.583434  0.625077  0.155120  1
  Ti  Ti32  1  0.083327  0.124996  -0.000131  1
  Ti  Ti33  1  0.583369  0.125000  -0.000096  1
  Ti  Ti34  1  0.083291  0.624994  -0.000089  1
  Ti  Ti35  1  0.583397  0.625021  -0.000071  1
  Ti  Ti36  1  0.359582  0.121510  0.407007  1
  Ti  Ti37  1  0.852343  0.138614  0.408294  1
  Ti  Ti38  1  0.331521  0.615607  0.401159  1
  Ti  Ti39  1  0.872484  0.560698  0.417723  1
  Ti  Ti40  1  0.341094  0.121462  0.235833  1
  Ti  Ti41  1  0.840362  0.126074  0.231856  1
  Ti  Ti42  1  0.335447  0.623741  0.236645  1
  Ti  Ti43  1  0.845999  0.612107  0.232235  1
  Ti  Ti44  1  0.333350  0.125018  0.077452  1
  Ti  Ti45  1  0.833295  0.125002  0.077511  1
  Ti  Ti46  1  0.333318  0.625026  0.077451  1
  Ti  Ti47  1  0.833338  0.624997  0.077613  1
  Ti  Ti48  1  0.374955  0.375032  0.823812  1
  Ti  Ti49  1  0.874968  0.375009  0.823832  1
  Ti  Ti50  1  0.375053  0.874962  0.823823  1
  Ti  Ti51  1  0.875029  0.874928  0.823702  1
  Ti  Ti52  1  0.125046  0.124956  0.823812  1
  Ti  Ti53  1  0.625034  0.124978  0.823833  1
  Ti  Ti54  1  0.124950  0.625022  0.823822  1
  Ti  Ti55  1  0.624977  0.625061  0.823702  1
  Ti  Ti56  1  0.124928  0.375036  0.910091  1
  Ti  Ti57  1  0.625047  0.375085  0.910104  1
  Ti  Ti58  1  0.124912  0.874960  0.910100  1
  Ti  Ti59  1  0.625093  0.874938  0.910130  1
  Ti  Ti60  1  0.375076  0.124953  0.910092  1
  Ti  Ti61  1  0.874956  0.124903  0.910105  1
  Ti  Ti62  1  0.375091  0.625026  0.910099  1
  Ti  Ti63  1  0.874910  0.625048  0.910128  1
  Ti  Ti64  1  0.396816  0.363976  0.648487  1
  Ti  Ti65  1  0.892548  0.363650  0.658504  1
  Ti  Ti66  1  0.383179  0.866409  0.663952  1
  Ti  Ti67  1  0.887248  0.866564  0.662064  1
  Ti  Ti68  1  0.103183  0.136019  0.648487  1
  Ti  Ti69  1  0.607451  0.136345  0.658504  1
  Ti  Ti70  1  0.116819  0.633586  0.663952  1
  Ti  Ti71  1  0.612751  0.633431  0.662064  1
  Ti  Ti72  1  0.151008  0.391448  0.573632  1
  Ti  Ti73  1  0.653488  0.398665  0.576076  1
  Ti  Ti74  1  0.140852  0.879436  0.577889  1
  Ti  Ti75  1  0.630038  0.882929  0.580190  1
  Ti  Ti76  1  0.348991  0.108551  0.573632  1
  Ti  Ti77  1  0.846511  0.101333  0.576076  1
  Ti  Ti78  1  0.359148  0.620562  0.577889  1
  Ti  Ti79  1  0.869961  0.617070  0.580190  1
  Ti  Ti80  1  0.392809  0.369802  0.491648  1
  Ti  Ti81  1  0.905779  0.348854  0.502584  1
  Ti  Ti82  1  0.391554  0.854849  0.490336  1
  Ti  Ti83  1  0.911161  0.876024  0.481372  1
  Ti  Ti84  1  0.107191  0.130197  0.491648  1
  Ti  Ti85  1  0.594221  0.151145  0.502584  1
  Ti  Ti86  1  0.108445  0.645151  0.490336  1
  Ti  Ti87  1  0.588839  0.623976  0.481372  1
  Ti  Ti88  1  0.125177  0.874986  0.737536  1
  Ti  Ti89  1  0.625124  0.874983  0.737504  1
  Ti  Ti90  1  0.374818  0.624996  0.737537  1
  Ti  Ti91  1  0.874871  0.625002  0.737505  1
  Ti  Ti92  1  0.125018  0.374992  0.737578  1
  Ti  Ti93  1  0.624795  0.375247  0.737566  1
  Ti  Ti94  1  0.374977  0.124988  0.737579  1
  Ti  Ti95  1  0.875199  0.124734  0.737568  1
  Nb  Nb96  1  0.750000  0.750000  0.374348  1
