# generated using pymatgen
data_ZrTi96
_symmetry_space_group_name_H-M   'P 1'
_cell_length_a   9.51302000
_cell_length_b   9.35086000
_cell_length_c   18.54723000
_cell_angle_alpha   90.00000000
_cell_angle_beta   90.00000000
_cell_angle_gamma   90.00000000
_symmetry_Int_Tables_number   1
_chemical_formula_structural   ZrTi96
_chemical_formula_sum   'Zr1 Ti96'
_cell_volume   1649.86732743
_cell_formula_units_Z   1
loop_
 _symmetry_equiv_pos_site_id
 _symmetry_equiv_pos_as_xyz
  1  'x, y, z'
loop_
 _atom_site_type_symbol
 _atom_site_label
 _atom_site_symmetry_multiplicity
 _atom_site_fract_x
 _atom_site_fract_y
 _atom_site_fract_z
 _atom_site_occupancy
  Ti  Ti0  1  0.147871  0.372312  0.402125  1
  Ti  Ti1  1  0.657020  0.356199  0.391263  1
  Ti  Ti2  1  0.150013  0.865801  0.396607  1
  Ti  Ti3  1  0.664365  0.869530  0.405006  1
  Ti  Ti4  1  0.161610  0.371160  0.236590  1
  Ti  Ti5  1  0.659199  0.373742  0.234195  1
  Ti  Ti6  1  0.161722  0.874376  0.235042  1
  Ti  Ti7  1  0.662487  0.872791  0.234424  1
  Ti  Ti8  1  0.166666  0.375028  0.077676  1
  Ti  Ti9  1  0.666668  0.375008  0.077670  1
  Ti  Ti10  1  0.166686  0.875014  0.077659  1
  Ti  Ti11  1  0.666659  0.874995  0.077644  1
  Ti  Ti12  1  0.407626  0.384176  0.315493  1
  Ti  Ti13  1  0.909611  0.378182  0.317942  1
  Ti  Ti14  1  0.406216  0.876419  0.316814  1
  Ti  Ti15  1  0.907117  0.877785  0.315619  1
  Ti  Ti16  1  0.416675  0.375016  0.155291  1
  Ti  Ti17  1  0.916653  0.374989  0.155310  1
  Ti  Ti18  1  0.416678  0.875020  0.155293  1
  Ti  Ti19  1  0.916693  0.874991  0.155252  1
  Ti  Ti20  1  0.416663  0.375035  -0.000008  1
  Ti  Ti21  1  0.916632  0.375017  0.000008  1
  Ti  Ti22  1  0.416664  0.874999  -0.000056  1
  Ti  Ti23  1  0.916643  0.874994  -0.000036  1
  Ti  Ti24  1  0.090389  0.121819  0.317941  1
  Ti  Ti25  1  0.592374  0.115825  0.315492  1
  Ti  Ti26  1  0.092883  0.622216  0.315618  1
  Ti  Ti27  1  0.593784  0.623581  0.316813  1
  Ti  Ti28  1  0.083347  0.125017  0.155310  1
  Ti  Ti29  1  0.583325  0.124990  0.155291  1
  Ti  Ti30  1  0.083307  0.625020  0.155252  1
  Ti  Ti31  1  0.583323  0.624989  0.155293  1
  Ti  Ti32  1  0.083369  0.124988  0.000007  1
  Ti  Ti33  1  0.583338  0.124972  -0.000009  1
  Ti  Ti34  1  0.083357  0.625020  -0.000035  1
  Ti  Ti35  1  0.583338  0.625014  -0.000055  1
  Ti  Ti36  1  0.342979  0.143801  0.391263  1
  Ti  Ti37  1  0.852128  0.127688  0.402125  1
  Ti  Ti38  1  0.335634  0.630470  0.405006  1
  Ti  Ti39  1  0.849986  0.634199  0.396607  1
  Ti  Ti40  1  0.340800  0.126260  0.234195  1
  Ti  Ti41  1  0.838389  0.128841  0.236590  1
  Ti  Ti42  1  0.337512  0.627211  0.234424  1
  Ti  Ti43  1  0.838277  0.625626  0.235042  1
  Ti  Ti44  1  0.333331  0.124999  0.077669  1
  Ti  Ti45  1  0.833333  0.124979  0.077675  1
  Ti  Ti46  1  0.333341  0.625016  0.077645  1
  Ti  Ti47  1  0.833314  0.624996  0.077660  1
  Ti  Ti48  1  0.374982  0.375007  0.823911  1
  Ti  Ti49  1  0.874992  0.374900  0.823909  1
  Ti  Ti50  1  0.375031  0.875102  0.823805  1
  Ti  Ti51  1  0.875121  0.875004  0.823835  1
  Ti  Ti52  1  0.125016  0.125092  0.823907  1
  Ti  Ti53  1  0.625025  0.124992  0.823910  1
  Ti  Ti54  1  0.124879  0.625000  0.823837  1
  Ti  Ti55  1  0.624973  0.624888  0.823808  1
  Ti  Ti56  1  0.124956  0.375031  0.910163  1
  Ti  Ti57  1  0.625013  0.374983  0.910171  1
  Ti  Ti58  1  0.125009  0.875007  0.910111  1
  Ti  Ti59  1  0.625004  0.874994  0.910101  1
  Ti  Ti60  1  0.374990  0.125014  0.910170  1
  Ti  Ti61  1  0.875050  0.124967  0.910161  1
  Ti  Ti62  1  0.375000  0.625009  0.910102  1
  Ti  Ti63  1  0.874997  0.624995  0.910112  1
  Ti  Ti64  1  0.383800  0.372297  0.666706  1
  Ti  Ti65  1  0.882134  0.387241  0.648714  1
  Ti  Ti66  1  0.372061  0.891407  0.663727  1
  Ti  Ti67  1  0.901941  0.878106  0.654719  1
  Ti  Ti68  1  0.117865  0.112757  0.648714  1
  Ti  Ti69  1  0.616197  0.127699  0.666705  1
  Ti  Ti70  1  0.098057  0.621889  0.654719  1
  Ti  Ti71  1  0.627938  0.608587  0.663728  1
  Ti  Ti72  1  0.136032  0.361633  0.571476  1
  Ti  Ti73  1  0.634878  0.358782  0.576805  1
  Ti  Ti74  1  0.155017  0.855464  0.565769  1
  Ti  Ti75  1  0.680635  0.920789  0.572548  1
  Ti  Ti76  1  0.365121  0.141218  0.576804  1
  Ti  Ti77  1  0.863967  0.138366  0.571475  1
  Ti  Ti78  1  0.319364  0.579210  0.572548  1
  Ti  Ti79  1  0.844983  0.644534  0.565770  1
  Ti  Ti80  1  0.399168  0.370452  0.481669  1
  Ti  Ti81  1  0.886621  0.381014  0.488734  1
  Ti  Ti82  1  0.370793  -0.069486  0.475597  1
  Ti  Ti83  1  0.915337  0.883670  0.483393  1
  Ti  Ti84  1  0.113379  0.118986  0.488734  1
  Ti  Ti85  1  0.600832  0.129547  0.481668  1
  Ti  Ti86  1  0.084662  0.616329  0.483393  1
  Ti  Ti87  1  0.629206  0.569485  0.475597  1
  Ti  Ti88  1  0.125299  0.875246  0.737666  1
  Ti  Ti89  1  0.625072  0.875119  0.737643  1
  Ti  Ti90  1  0.374919  0.624864  0.737647  1
  Ti  Ti91  1  0.874694  0.624737  0.737673  1
  Ti  Ti92  1  0.124722  0.374872  0.737682  1
  Ti  Ti93  1  0.625119  0.374714  0.737721  1
  Ti  Ti94  1  0.374870  0.125264  0.737717  1
  Ti  Ti95  1  0.875270  0.125108  0.737676  1
  Zr  Zr96  1  0.500000  0.749999  0.542584  1
