# generated using pymatgen
data_ZrTi96
_symmetry_space_group_name_H-M   'P 1'
_cell_length_a   9.51302000
_cell_length_b   9.35086000
_cell_length_c   18.54723000
_cell_angle_alpha   90.00000000
_cell_angle_beta   90.00000000
_cell_angle_gamma   90.00000000
_symmetry_Int_Tables_number   1
_chemical_formula_structural   ZrTi96
_chemical_formula_sum   'Zr1 Ti96'
_cell_volume   1649.86732743
_cell_formula_units_Z   1
loop_
 _symmetry_equiv_pos_site_id
 _symmetry_equiv_pos_as_xyz
  1  'x, y, z'
loop_
 _atom_site_type_symbol
 _atom_site_label
 _atom_site_symmetry_multiplicity
 _atom_site_fract_x
 _atom_site_fract_y
 _atom_site_fract_z
 _atom_site_occupancy
  Ti  Ti0  1  0.144209  0.365165  0.406686  1
  Ti  Ti1  1  0.630685  0.345757  0.407134  1
  Ti  Ti2  1  0.151351  0.847598  0.390453  1
  Ti  Ti3  1  0.684680  0.909200  0.391714  1
  Ti  Ti4  1  0.154964  0.371516  0.237207  1
  Ti  Ti5  1  0.663496  0.373975  0.233926  1
  Ti  Ti6  1  0.163087  0.876550  0.234738  1
  Ti  Ti7  1  0.662396  0.870261  0.235165  1
  Ti  Ti8  1  0.166666  0.375000  0.077689  1
  Ti  Ti9  1  0.666666  0.375000  0.077689  1
  Ti  Ti10  1  0.166666  0.875000  0.077689  1
  Ti  Ti11  1  0.666666  0.875000  0.077689  1
  Ti  Ti12  1  0.405687  0.374288  0.309076  1
  Ti  Ti13  1  0.890262  0.379936  0.327463  1
  Ti  Ti14  1  0.410408  0.887240  0.320240  1
  Ti  Ti15  1  0.917469  0.885619  0.310895  1
  Ti  Ti16  1  0.416667  0.375000  0.155379  1
  Ti  Ti17  1  0.916667  0.375000  0.155379  1
  Ti  Ti18  1  0.416667  0.875000  0.155379  1
  Ti  Ti19  1  0.916667  0.875000  0.155379  1
  Ti  Ti20  1  0.416667  0.375000  -0.000000  1
  Ti  Ti21  1  0.916667  0.375000  -0.000000  1
  Ti  Ti22  1  0.416667  0.875000  -0.000000  1
  Ti  Ti23  1  0.916667  0.875000  -0.000000  1
  Ti  Ti24  1  0.109738  0.120064  0.327462  1
  Ti  Ti25  1  0.594313  0.125712  0.309075  1
  Ti  Ti26  1  0.082531  0.614381  0.310894  1
  Ti  Ti27  1  0.589592  0.612760  0.320239  1
  Ti  Ti28  1  0.083333  0.125000  0.155379  1
  Ti  Ti29  1  0.583333  0.125000  0.155379  1
  Ti  Ti30  1  0.083333  0.625000  0.155379  1
  Ti  Ti31  1  0.583333  0.625000  0.155379  1
  Ti  Ti32  1  0.083333  0.125000  -0.000000  1
  Ti  Ti33  1  0.583333  0.125000  -0.000000  1
  Ti  Ti34  1  0.083333  0.625000  -0.000000  1
  Ti  Ti35  1  0.583333  0.625000  -0.000000  1
  Ti  Ti36  1  0.369314  0.154243  0.407134  1
  Ti  Ti37  1  0.855790  0.134835  0.406686  1
  Ti  Ti38  1  0.315319  0.590800  0.391714  1
  Ti  Ti39  1  0.848648  0.652402  0.390453  1
  Ti  Ti40  1  0.336503  0.126025  0.233926  1
  Ti  Ti41  1  0.845035  0.128484  0.237207  1
  Ti  Ti42  1  0.337603  0.629739  0.235165  1
  Ti  Ti43  1  0.836912  0.623450  0.234738  1
  Ti  Ti44  1  0.333333  0.125000  0.077689  1
  Ti  Ti45  1  0.833333  0.125000  0.077689  1
  Ti  Ti46  1  0.333333  0.625000  0.077689  1
  Ti  Ti47  1  0.833333  0.625000  0.077689  1
  Ti  Ti48  1  0.375000  0.375000  0.823738  1
  Ti  Ti49  1  0.875000  0.375000  0.823738  1
  Ti  Ti50  1  0.375000  0.875000  0.823738  1
  Ti  Ti51  1  0.875000  0.875000  0.823738  1
  Ti  Ti52  1  0.125000  0.125000  0.823738  1
  Ti  Ti53  1  0.625000  0.125000  0.823738  1
  Ti  Ti54  1  0.125000  0.625000  0.823738  1
  Ti  Ti55  1  0.625000  0.625000  0.823738  1
  Ti  Ti56  1  0.125000  0.375000  0.910084  1
  Ti  Ti57  1  0.625000  0.375000  0.910084  1
  Ti  Ti58  1  0.125000  0.875000  0.910084  1
  Ti  Ti59  1  0.625000  0.875000  0.910084  1
  Ti  Ti60  1  0.375000  0.125000  0.910084  1
  Ti  Ti61  1  0.875000  0.125000  0.910084  1
  Ti  Ti62  1  0.375000  0.625000  0.910084  1
  Ti  Ti63  1  0.875000  0.625000  0.910084  1
  Ti  Ti64  1  0.391016  0.390440  0.656332  1
  Ti  Ti65  1  0.894522  0.365783  0.648257  1
  Ti  Ti66  1  0.394263  0.894654  0.644710  1
  Ti  Ti67  1  0.880181  0.883259  0.671667  1
  Ti  Ti68  1  0.105478  0.134217  0.648257  1
  Ti  Ti69  1  0.608984  0.109560  0.656332  1
  Ti  Ti70  1  0.119819  0.616741  0.671667  1
  Ti  Ti71  1  0.605737  0.605346  0.644710  1
  Ti  Ti72  1  0.151008  0.389590  0.566469  1
  Ti  Ti73  1  0.647532  0.334864  0.572848  1
  Ti  Ti74  1  0.117134  0.862172  0.587789  1
  Ti  Ti75  1  0.656857  0.856629  0.577836  1
  Ti  Ti76  1  0.352468  0.165136  0.572848  1
  Ti  Ti77  1  0.848992  0.110410  0.566469  1
  Ti  Ti78  1  0.343143  0.643371  0.577836  1
  Ti  Ti79  1  0.882866  0.637828  0.587789  1
  Ti  Ti80  1  0.414936  0.411269  0.496013  1
  Ti  Ti81  1  0.899914  0.372022  0.488085  1
  Ti  Ti82  1  0.312151  0.936004  0.497873  1
  Ti  Ti83  1  0.912507  0.873649  0.482638  1
  Ti  Ti84  1  0.100086  0.127978  0.488085  1
  Ti  Ti85  1  0.585064  0.088731  0.496013  1
  Ti  Ti86  1  0.087493  0.626351  0.482638  1
  Ti  Ti87  1  0.687849  0.563996  0.497873  1
  Ti  Ti88  1  0.125000  0.875000  0.737395  1
  Ti  Ti89  1  0.625000  0.875000  0.737395  1
  Ti  Ti90  1  0.375000  0.625000  0.737395  1
  Ti  Ti91  1  0.875000  0.625000  0.737395  1
  Ti  Ti92  1  0.125000  0.375000  0.737395  1
  Ti  Ti93  1  0.625000  0.375000  0.737395  1
  Ti  Ti94  1  0.375000  0.125000  0.737395  1
  Ti  Ti95  1  0.875000  0.125000  0.737395  1
  Zr  Zr96  1  0.500000  0.750000  0.457306  1
