# generated using pymatgen
data_ZrTi96
_symmetry_space_group_name_H-M   'P 1'
_cell_length_a   9.51302000
_cell_length_b   9.35086000
_cell_length_c   18.54723000
_cell_angle_alpha   90.00000000
_cell_angle_beta   90.00000000
_cell_angle_gamma   90.00000000
_symmetry_Int_Tables_number   1
_chemical_formula_structural   ZrTi96
_chemical_formula_sum   'Zr1 Ti96'
_cell_volume   1649.86732743
_cell_formula_units_Z   1
loop_
 _symmetry_equiv_pos_site_id
 _symmetry_equiv_pos_as_xyz
  1  'x, y, z'
loop_
 _atom_site_type_symbol
 _atom_site_label
 _atom_site_symmetry_multiplicity
 _atom_site_fract_x
 _atom_site_fract_y
 _atom_site_fract_z
 _atom_site_occupancy
  Ti  Ti0  1  0.142822  0.363899  0.406464  1
  Ti  Ti1  1  0.629543  0.343875  0.406946  1
  Ti  Ti2  1  0.151167  0.843591  0.390655  1
  Ti  Ti3  1  0.684318  0.911718  0.392597  1
  Ti  Ti4  1  0.152391  0.370000  0.237923  1
  Ti  Ti5  1  0.663770  0.373114  0.233721  1
  Ti  Ti6  1  0.163067  0.876419  0.234485  1
  Ti  Ti7  1  0.662742  0.869910  0.235377  1
  Ti  Ti8  1  0.166666  0.375000  0.077689  1
  Ti  Ti9  1  0.666666  0.375000  0.077689  1
  Ti  Ti10  1  0.166666  0.875000  0.077689  1
  Ti  Ti11  1  0.666666  0.875000  0.077689  1
  Ti  Ti12  1  0.405259  0.374832  0.308479  1
  Ti  Ti13  1  0.886046  0.385217  0.330639  1
  Ti  Ti14  1  0.409143  0.888652  0.320266  1
  Ti  Ti15  1  0.917198  0.886332  0.310433  1
  Ti  Ti16  1  0.416667  0.375000  0.155379  1
  Ti  Ti17  1  0.916667  0.375000  0.155379  1
  Ti  Ti18  1  0.416667  0.875000  0.155379  1
  Ti  Ti19  1  0.916667  0.875000  0.155379  1
  Ti  Ti20  1  0.416667  0.375000  0.000000  1
  Ti  Ti21  1  0.916667  0.375000  0.000000  1
  Ti  Ti22  1  0.416667  0.875000  0.000000  1
  Ti  Ti23  1  0.916667  0.875000  0.000000  1
  Ti  Ti24  1  0.113954  0.114783  0.330638  1
  Ti  Ti25  1  0.594741  0.125168  0.308478  1
  Ti  Ti26  1  0.082802  0.613668  0.310432  1
  Ti  Ti27  1  0.590857  0.611348  0.320265  1
  Ti  Ti28  1  0.083333  0.125000  0.155379  1
  Ti  Ti29  1  0.583333  0.125000  0.155379  1
  Ti  Ti30  1  0.083333  0.625000  0.155379  1
  Ti  Ti31  1  0.583333  0.625000  0.155379  1
  Ti  Ti32  1  0.083333  0.125000  0.000000  1
  Ti  Ti33  1  0.583333  0.125000  0.000000  1
  Ti  Ti34  1  0.083333  0.625000  0.000000  1
  Ti  Ti35  1  0.583333  0.625000  0.000000  1
  Ti  Ti36  1  0.370456  0.156125  0.406946  1
  Ti  Ti37  1  0.857177  0.136101  0.406464  1
  Ti  Ti38  1  0.315681  0.588282  0.392597  1
  Ti  Ti39  1  0.848832  0.656409  0.390655  1
  Ti  Ti40  1  0.336229  0.126886  0.233721  1
  Ti  Ti41  1  0.847608  0.130000  0.237923  1
  Ti  Ti42  1  0.337257  0.630090  0.235377  1
  Ti  Ti43  1  0.836932  0.623581  0.234485  1
  Ti  Ti44  1  0.333333  0.125000  0.077689  1
  Ti  Ti45  1  0.833333  0.125000  0.077689  1
  Ti  Ti46  1  0.333333  0.625000  0.077689  1
  Ti  Ti47  1  0.833333  0.625000  0.077689  1
  Ti  Ti48  1  0.375000  0.375000  0.823738  1
  Ti  Ti49  1  0.875000  0.375000  0.823738  1
  Ti  Ti50  1  0.375000  0.875000  0.823738  1
  Ti  Ti51  1  0.875000  0.875000  0.823738  1
  Ti  Ti52  1  0.125000  0.125000  0.823738  1
  Ti  Ti53  1  0.625000  0.125000  0.823738  1
  Ti  Ti54  1  0.125000  0.625000  0.823738  1
  Ti  Ti55  1  0.625000  0.625000  0.823738  1
  Ti  Ti56  1  0.125000  0.375000  0.910084  1
  Ti  Ti57  1  0.625000  0.375000  0.910084  1
  Ti  Ti58  1  0.125000  0.875000  0.910084  1
  Ti  Ti59  1  0.625000  0.875000  0.910084  1
  Ti  Ti60  1  0.375000  0.125000  0.910084  1
  Ti  Ti61  1  0.875000  0.125000  0.910084  1
  Ti  Ti62  1  0.375000  0.625000  0.910084  1
  Ti  Ti63  1  0.875000  0.625000  0.910084  1
  Ti  Ti64  1  0.390376  0.391230  0.657311  1
  Ti  Ti65  1  0.895113  0.367435  0.648358  1
  Ti  Ti66  1  0.394577  0.894021  0.644078  1
  Ti  Ti67  1  0.880948  0.884025  0.671105  1
  Ti  Ti68  1  0.104887  0.132565  0.648358  1
  Ti  Ti69  1  0.609624  0.108770  0.657311  1
  Ti  Ti70  1  0.119052  0.615975  0.671105  1
  Ti  Ti71  1  0.605423  0.605979  0.644078  1
  Ti  Ti72  1  0.151453  0.388567  0.566662  1
  Ti  Ti73  1  0.646729  0.336183  0.575055  1
  Ti  Ti74  1  0.118723  0.860001  0.587498  1
  Ti  Ti75  1  0.656949  0.858027  0.577009  1
  Ti  Ti76  1  0.353271  0.163817  0.575055  1
  Ti  Ti77  1  0.848547  0.111433  0.566662  1
  Ti  Ti78  1  0.343051  0.641973  0.577009  1
  Ti  Ti79  1  0.881277  0.639999  0.587498  1
  Ti  Ti80  1  0.415773  0.408805  0.496376  1
  Ti  Ti81  1  0.898902  0.371108  0.488683  1
  Ti  Ti82  1  0.312593  0.936819  0.496738  1
  Ti  Ti83  1  0.914791  0.876282  0.482714  1
  Ti  Ti84  1  0.101098  0.128892  0.488683  1
  Ti  Ti85  1  0.584227  0.091195  0.496376  1
  Ti  Ti86  1  0.085209  0.623718  0.482714  1
  Ti  Ti87  1  0.687407  0.563181  0.496738  1
  Ti  Ti88  1  0.125000  0.875000  0.737395  1
  Ti  Ti89  1  0.625000  0.875000  0.737395  1
  Ti  Ti90  1  0.375000  0.625000  0.737395  1
  Ti  Ti91  1  0.875000  0.625000  0.737395  1
  Ti  Ti92  1  0.125000  0.375000  0.737395  1
  Ti  Ti93  1  0.625000  0.375000  0.737395  1
  Ti  Ti94  1  0.375000  0.125000  0.737395  1
  Ti  Ti95  1  0.875000  0.125000  0.737395  1
  Zr  Zr96  1  0.500000  0.750000  0.456982  1
