# generated using pymatgen
data_Ti96Sn
_symmetry_space_group_name_H-M   'P 1'
_cell_length_a   9.51302000
_cell_length_b   9.35086000
_cell_length_c   18.54723000
_cell_angle_alpha   90.00000000
_cell_angle_beta   90.00000000
_cell_angle_gamma   90.00000000
_symmetry_Int_Tables_number   1
_chemical_formula_structural   Ti96Sn
_chemical_formula_sum   'Ti96 Sn1'
_cell_volume   1649.86732743
_cell_formula_units_Z   1
loop_
 _symmetry_equiv_pos_site_id
 _symmetry_equiv_pos_as_xyz
  1  'x, y, z'
loop_
 _atom_site_type_symbol
 _atom_site_label
 _atom_site_symmetry_multiplicity
 _atom_site_fract_x
 _atom_site_fract_y
 _atom_site_fract_z
 _atom_site_occupancy
  Ti  Ti0  1  0.148561  0.375443  0.402618  1
  Ti  Ti1  1  0.643521  0.335477  0.406846  1
  Ti  Ti2  1  0.116744  0.855505  0.393565  1
  Ti  Ti3  1  0.688856  0.872565  0.388651  1
  Ti  Ti4  1  0.161965  0.369280  0.234776  1
  Ti  Ti5  1  0.658905  0.375928  0.234598  1
  Ti  Ti6  1  0.168221  0.874882  0.234982  1
  Ti  Ti7  1  0.652440  0.870410  0.236113  1
  Ti  Ti8  1  0.166666  0.375000  0.077689  1
  Ti  Ti9  1  0.666666  0.375000  0.077689  1
  Ti  Ti10  1  0.166666  0.875000  0.077689  1
  Ti  Ti11  1  0.666666  0.875000  0.077689  1
  Ti  Ti12  1  0.405894  0.382296  0.314101  1
  Ti  Ti13  1  0.896083  0.374912  0.321290  1
  Ti  Ti14  1  0.398850  0.896518  0.334620  1
  Ti  Ti15  1  0.914854  0.887416  0.303798  1
  Ti  Ti16  1  0.416667  0.375000  0.155379  1
  Ti  Ti17  1  0.916667  0.375000  0.155379  1
  Ti  Ti18  1  0.416667  0.875000  0.155379  1
  Ti  Ti19  1  0.916667  0.875000  0.155379  1
  Ti  Ti20  1  0.416667  0.375000  -0.000000  1
  Ti  Ti21  1  0.916667  0.375000  -0.000000  1
  Ti  Ti22  1  0.416667  0.875000  -0.000000  1
  Ti  Ti23  1  0.916667  0.875000  -0.000000  1
  Ti  Ti24  1  0.103917  0.125088  0.321289  1
  Ti  Ti25  1  0.594106  0.117704  0.314100  1
  Ti  Ti26  1  0.085146  0.612584  0.303797  1
  Ti  Ti27  1  0.601150  0.603482  0.334619  1
  Ti  Ti28  1  0.083333  0.125000  0.155379  1
  Ti  Ti29  1  0.583333  0.125000  0.155379  1
  Ti  Ti30  1  0.083333  0.625000  0.155379  1
  Ti  Ti31  1  0.583333  0.625000  0.155379  1
  Ti  Ti32  1  0.083333  0.125000  -0.000000  1
  Ti  Ti33  1  0.583333  0.125000  -0.000000  1
  Ti  Ti34  1  0.083333  0.625000  -0.000000  1
  Ti  Ti35  1  0.583333  0.625000  -0.000000  1
  Ti  Ti36  1  0.356478  0.164523  0.406846  1
  Ti  Ti37  1  0.851438  0.124557  0.402618  1
  Ti  Ti38  1  0.311143  0.627435  0.388651  1
  Ti  Ti39  1  0.883255  0.644495  0.393565  1
  Ti  Ti40  1  0.341094  0.124072  0.234598  1
  Ti  Ti41  1  0.838034  0.130720  0.234776  1
  Ti  Ti42  1  0.347559  0.629590  0.236113  1
  Ti  Ti43  1  0.831778  0.625118  0.234982  1
  Ti  Ti44  1  0.333333  0.125000  0.077689  1
  Ti  Ti45  1  0.833333  0.125000  0.077689  1
  Ti  Ti46  1  0.333333  0.625000  0.077689  1
  Ti  Ti47  1  0.833333  0.625000  0.077689  1
  Ti  Ti48  1  0.375000  0.375000  0.823738  1
  Ti  Ti49  1  0.875000  0.375000  0.823738  1
  Ti  Ti50  1  0.375000  0.875000  0.823738  1
  Ti  Ti51  1  0.875000  0.875000  0.823738  1
  Ti  Ti52  1  0.125000  0.125000  0.823738  1
  Ti  Ti53  1  0.625000  0.125000  0.823738  1
  Ti  Ti54  1  0.125000  0.625000  0.823738  1
  Ti  Ti55  1  0.625000  0.625000  0.823738  1
  Ti  Ti56  1  0.125000  0.375000  0.910084  1
  Ti  Ti57  1  0.625000  0.375000  0.910084  1
  Ti  Ti58  1  0.125000  0.875000  0.910084  1
  Ti  Ti59  1  0.625000  0.875000  0.910084  1
  Ti  Ti60  1  0.375000  0.125000  0.910084  1
  Ti  Ti61  1  0.875000  0.125000  0.910084  1
  Ti  Ti62  1  0.375000  0.625000  0.910084  1
  Ti  Ti63  1  0.875000  0.625000  0.910084  1
  Ti  Ti64  1  0.394848  0.384731  0.661354  1
  Ti  Ti65  1  0.888814  0.375996  0.644696  1
  Ti  Ti66  1  0.387545  0.895269  0.642348  1
  Ti  Ti67  1  0.881740  0.885155  0.673224  1
  Ti  Ti68  1  0.111186  0.124004  0.644696  1
  Ti  Ti69  1  0.605152  0.115269  0.661354  1
  Ti  Ti70  1  0.118260  0.614845  0.673224  1
  Ti  Ti71  1  0.612455  0.604731  0.642348  1
  Ti  Ti72  1  0.155147  0.380142  0.573782  1
  Ti  Ti73  1  0.634113  0.334030  0.567781  1
  Ti  Ti74  1  0.114472  0.853339  0.586535  1
  Ti  Ti75  1  0.663574  0.867499  0.582067  1
  Ti  Ti76  1  0.365887  0.165970  0.567781  1
  Ti  Ti77  1  0.844853  0.119858  0.573782  1
  Ti  Ti78  1  0.336426  0.632501  0.582067  1
  Ti  Ti79  1  0.885528  0.646661  0.586535  1
  Ti  Ti80  1  0.412501  0.426960  0.483587  1
  Ti  Ti81  1  0.903210  0.365562  0.488154  1
  Ti  Ti82  1  0.296297  0.934957  0.490617  1
  Ti  Ti83  1  0.904974  0.894823  0.490407  1
  Ti  Ti84  1  0.096790  0.134438  0.488154  1
  Ti  Ti85  1  0.587499  0.073040  0.483587  1
  Ti  Ti86  1  0.095026  0.605177  0.490407  1
  Ti  Ti87  1  0.703703  0.565043  0.490617  1
  Ti  Ti88  1  0.125000  0.875000  0.737395  1
  Ti  Ti89  1  0.625000  0.875000  0.737395  1
  Ti  Ti90  1  0.375000  0.625000  0.737395  1
  Ti  Ti91  1  0.875000  0.625000  0.737395  1
  Ti  Ti92  1  0.125000  0.375000  0.737395  1
  Ti  Ti93  1  0.625000  0.375000  0.737395  1
  Ti  Ti94  1  0.375000  0.125000  0.737395  1
  Ti  Ti95  1  0.875000  0.125000  0.737395  1
  Sn  Sn96  1  0.500000  0.750000  0.475373  1
