# generated using pymatgen
data_Ti96Sn
_symmetry_space_group_name_H-M   'P 1'
_cell_length_a   9.51302000
_cell_length_b   9.35086000
_cell_length_c   18.54723000
_cell_angle_alpha   90.00000000
_cell_angle_beta   90.00000000
_cell_angle_gamma   90.00000000
_symmetry_Int_Tables_number   1
_chemical_formula_structural   Ti96Sn
_chemical_formula_sum   'Ti96 Sn1'
_cell_volume   1649.86732743
_cell_formula_units_Z   1
loop_
 _symmetry_equiv_pos_site_id
 _symmetry_equiv_pos_as_xyz
  1  'x, y, z'
loop_
 _atom_site_type_symbol
 _atom_site_label
 _atom_site_symmetry_multiplicity
 _atom_site_fract_x
 _atom_site_fract_y
 _atom_site_fract_z
 _atom_site_occupancy
  Ti  Ti0  1  0.155018  0.390977  0.405327  1
  Ti  Ti1  1  0.646824  0.328345  0.413533  1
  Ti  Ti2  1  0.125971  0.846619  0.423667  1
  Ti  Ti3  1  0.648202  0.858701  0.411737  1
  Ti  Ti4  1  0.143845  0.360825  0.242313  1
  Ti  Ti5  1  0.658034  0.370182  0.237050  1
  Ti  Ti6  1  0.161437  0.864834  0.233529  1
  Ti  Ti7  1  0.688185  0.910095  0.230141  1
  Ti  Ti8  1  0.166666  0.375000  0.077689  1
  Ti  Ti9  1  0.666666  0.375000  0.077689  1
  Ti  Ti10  1  0.166666  0.875000  0.077689  1
  Ti  Ti11  1  0.666666  0.875000  0.077689  1
  Ti  Ti12  1  0.415940  0.388293  0.323341  1
  Ti  Ti13  1  0.898173  0.369800  0.327740  1
  Ti  Ti14  1  0.323420  0.939901  0.343272  1
  Ti  Ti15  1  0.916141  0.878676  0.318108  1
  Ti  Ti16  1  0.416667  0.375000  0.155379  1
  Ti  Ti17  1  0.916667  0.375000  0.155379  1
  Ti  Ti18  1  0.416667  0.875000  0.155379  1
  Ti  Ti19  1  0.916667  0.875000  0.155379  1
  Ti  Ti20  1  0.416667  0.375000  0.000000  1
  Ti  Ti21  1  0.916667  0.375000  0.000000  1
  Ti  Ti22  1  0.416667  0.875000  0.000000  1
  Ti  Ti23  1  0.916667  0.875000  0.000000  1
  Ti  Ti24  1  0.101827  0.130200  0.327739  1
  Ti  Ti25  1  0.584060  0.111707  0.323340  1
  Ti  Ti26  1  0.083859  0.621324  0.318107  1
  Ti  Ti27  1  0.676580  0.560099  0.343271  1
  Ti  Ti28  1  0.083333  0.125000  0.155379  1
  Ti  Ti29  1  0.583333  0.125000  0.155379  1
  Ti  Ti30  1  0.083333  0.625000  0.155379  1
  Ti  Ti31  1  0.583333  0.625000  0.155379  1
  Ti  Ti32  1  0.083333  0.125000  0.000000  1
  Ti  Ti33  1  0.583333  0.125000  0.000000  1
  Ti  Ti34  1  0.083333  0.625000  0.000000  1
  Ti  Ti35  1  0.583333  0.625000  0.000000  1
  Ti  Ti36  1  0.353175  0.171655  0.413533  1
  Ti  Ti37  1  0.844981  0.109023  0.405327  1
  Ti  Ti38  1  0.351797  0.641299  0.411737  1
  Ti  Ti39  1  0.874028  0.653381  0.423667  1
  Ti  Ti40  1  0.341965  0.129818  0.237050  1
  Ti  Ti41  1  0.856154  0.139175  0.242313  1
  Ti  Ti42  1  0.311814  0.589905  0.230141  1
  Ti  Ti43  1  0.838562  0.635166  0.233529  1
  Ti  Ti44  1  0.333333  0.125000  0.077689  1
  Ti  Ti45  1  0.833333  0.125000  0.077689  1
  Ti  Ti46  1  0.333333  0.625000  0.077689  1
  Ti  Ti47  1  0.833333  0.625000  0.077689  1
  Ti  Ti48  1  0.375000  0.375000  0.823738  1
  Ti  Ti49  1  0.875000  0.375000  0.823738  1
  Ti  Ti50  1  0.375000  0.875000  0.823738  1
  Ti  Ti51  1  0.875000  0.875000  0.823738  1
  Ti  Ti52  1  0.125000  0.125000  0.823738  1
  Ti  Ti53  1  0.625000  0.125000  0.823738  1
  Ti  Ti54  1  0.125000  0.625000  0.823738  1
  Ti  Ti55  1  0.625000  0.625000  0.823738  1
  Ti  Ti56  1  0.125000  0.375000  0.910084  1
  Ti  Ti57  1  0.625000  0.375000  0.910084  1
  Ti  Ti58  1  0.125000  0.875000  0.910084  1
  Ti  Ti59  1  0.625000  0.875000  0.910084  1
  Ti  Ti60  1  0.375000  0.125000  0.910084  1
  Ti  Ti61  1  0.875000  0.125000  0.910084  1
  Ti  Ti62  1  0.375000  0.625000  0.910084  1
  Ti  Ti63  1  0.875000  0.625000  0.910084  1
  Ti  Ti64  1  0.394142  0.387855  0.654006  1
  Ti  Ti65  1  0.898967  0.384893  0.655612  1
  Ti  Ti66  1  0.398063  0.885250  0.651944  1
  Ti  Ti67  1  0.890256  0.888301  0.656250  1
  Ti  Ti68  1  0.101033  0.115107  0.655612  1
  Ti  Ti69  1  0.605858  0.112145  0.654006  1
  Ti  Ti70  1  0.109744  0.611699  0.656250  1
  Ti  Ti71  1  0.601937  0.614750  0.651944  1
  Ti  Ti72  1  0.146838  0.356417  0.574104  1
  Ti  Ti73  1  0.650535  0.360919  0.578729  1
  Ti  Ti74  1  0.147641  0.867075  0.581262  1
  Ti  Ti75  1  0.648131  0.859366  0.570382  1
  Ti  Ti76  1  0.349465  0.139081  0.578729  1
  Ti  Ti77  1  0.853162  0.143583  0.574104  1
  Ti  Ti78  1  0.351869  0.640634  0.570382  1
  Ti  Ti79  1  0.852359  0.632925  0.581262  1
  Ti  Ti80  1  0.399900  0.392813  0.497657  1
  Ti  Ti81  1  0.896652  0.378151  0.483501  1
  Ti  Ti82  1  0.392629  0.896753  0.491178  1
  Ti  Ti83  1  0.902004  0.893431  0.505342  1
  Ti  Ti84  1  0.103348  0.121849  0.483501  1
  Ti  Ti85  1  0.600100  0.107187  0.497657  1
  Ti  Ti86  1  0.097996  0.606569  0.505342  1
  Ti  Ti87  1  0.607371  0.603247  0.491178  1
  Ti  Ti88  1  0.125000  0.875000  0.737395  1
  Ti  Ti89  1  0.625000  0.875000  0.737395  1
  Ti  Ti90  1  0.375000  0.625000  0.737395  1
  Ti  Ti91  1  0.875000  0.625000  0.737395  1
  Ti  Ti92  1  0.125000  0.375000  0.737395  1
  Ti  Ti93  1  0.625000  0.375000  0.737395  1
  Ti  Ti94  1  0.375000  0.125000  0.737395  1
  Ti  Ti95  1  0.875000  0.125000  0.737395  1
  Sn  Sn96  1  0.500000  0.750000  0.291911  1
