# generated using pymatgen
data_ZrTi96
_symmetry_space_group_name_H-M   'P 1'
_cell_length_a   9.51302000
_cell_length_b   9.35086000
_cell_length_c   18.54723000
_cell_angle_alpha   90.00000000
_cell_angle_beta   90.00000000
_cell_angle_gamma   90.00000000
_symmetry_Int_Tables_number   1
_chemical_formula_structural   ZrTi96
_chemical_formula_sum   'Zr1 Ti96'
_cell_volume   1649.86732743
_cell_formula_units_Z   1
loop_
 _symmetry_equiv_pos_site_id
 _symmetry_equiv_pos_as_xyz
  1  'x, y, z'
loop_
 _atom_site_type_symbol
 _atom_site_label
 _atom_site_symmetry_multiplicity
 _atom_site_fract_x
 _atom_site_fract_y
 _atom_site_fract_z
 _atom_site_occupancy
  Ti  Ti0  1  0.149170  0.373967  0.400797  1
  Ti  Ti1  1  0.665138  0.361670  0.386485  1
  Ti  Ti2  1  0.150848  0.871421  0.399451  1
  Ti  Ti3  1  0.656485  0.857840  0.410813  1
  Ti  Ti4  1  0.163111  0.370327  0.236800  1
  Ti  Ti5  1  0.657739  0.373354  0.234443  1
  Ti  Ti6  1  0.161177  0.873460  0.235285  1
  Ti  Ti7  1  0.662619  0.873728  0.234506  1
  Ti  Ti8  1  0.166666  0.375000  0.077689  1
  Ti  Ti9  1  0.666666  0.375000  0.077689  1
  Ti  Ti10  1  0.166666  0.875000  0.077689  1
  Ti  Ti11  1  0.666666  0.875000  0.077689  1
  Ti  Ti12  1  0.408259  0.386881  0.318061  1
  Ti  Ti13  1  0.914761  0.379332  0.315942  1
  Ti  Ti14  1  0.404411  0.872725  0.315934  1
  Ti  Ti15  1  0.903190  0.875325  0.317625  1
  Ti  Ti16  1  0.416667  0.375000  0.155379  1
  Ti  Ti17  1  0.916667  0.375000  0.155379  1
  Ti  Ti18  1  0.416667  0.875000  0.155379  1
  Ti  Ti19  1  0.916667  0.875000  0.155379  1
  Ti  Ti20  1  0.416667  0.375000  0.000000  1
  Ti  Ti21  1  0.916667  0.375000  0.000000  1
  Ti  Ti22  1  0.416667  0.875000  0.000000  1
  Ti  Ti23  1  0.916667  0.875000  0.000000  1
  Ti  Ti24  1  0.085239  0.120668  0.315941  1
  Ti  Ti25  1  0.591741  0.113119  0.318060  1
  Ti  Ti26  1  0.096810  0.624675  0.317624  1
  Ti  Ti27  1  0.595589  0.627275  0.315933  1
  Ti  Ti28  1  0.083333  0.125000  0.155379  1
  Ti  Ti29  1  0.583333  0.125000  0.155379  1
  Ti  Ti30  1  0.083333  0.625000  0.155379  1
  Ti  Ti31  1  0.583333  0.625000  0.155379  1
  Ti  Ti32  1  0.083333  0.125000  0.000000  1
  Ti  Ti33  1  0.583333  0.125000  0.000000  1
  Ti  Ti34  1  0.083333  0.625000  0.000000  1
  Ti  Ti35  1  0.583333  0.625000  0.000000  1
  Ti  Ti36  1  0.334861  0.138330  0.386485  1
  Ti  Ti37  1  0.850829  0.126033  0.400797  1
  Ti  Ti38  1  0.343514  0.642160  0.410813  1
  Ti  Ti39  1  0.849151  0.628579  0.399451  1
  Ti  Ti40  1  0.342260  0.126646  0.234443  1
  Ti  Ti41  1  0.836888  0.129673  0.236800  1
  Ti  Ti42  1  0.337380  0.626272  0.234506  1
  Ti  Ti43  1  0.838822  0.626540  0.235285  1
  Ti  Ti44  1  0.333333  0.125000  0.077689  1
  Ti  Ti45  1  0.833333  0.125000  0.077689  1
  Ti  Ti46  1  0.333333  0.625000  0.077689  1
  Ti  Ti47  1  0.833333  0.625000  0.077689  1
  Ti  Ti48  1  0.375000  0.375000  0.823738  1
  Ti  Ti49  1  0.875000  0.375000  0.823738  1
  Ti  Ti50  1  0.375000  0.875000  0.823738  1
  Ti  Ti51  1  0.875000  0.875000  0.823738  1
  Ti  Ti52  1  0.125000  0.125000  0.823738  1
  Ti  Ti53  1  0.625000  0.125000  0.823738  1
  Ti  Ti54  1  0.125000  0.625000  0.823738  1
  Ti  Ti55  1  0.625000  0.625000  0.823738  1
  Ti  Ti56  1  0.125000  0.375000  0.910084  1
  Ti  Ti57  1  0.625000  0.375000  0.910084  1
  Ti  Ti58  1  0.125000  0.875000  0.910084  1
  Ti  Ti59  1  0.625000  0.875000  0.910084  1
  Ti  Ti60  1  0.375000  0.125000  0.910084  1
  Ti  Ti61  1  0.875000  0.125000  0.910084  1
  Ti  Ti62  1  0.375000  0.625000  0.910084  1
  Ti  Ti63  1  0.875000  0.625000  0.910084  1
  Ti  Ti64  1  0.380971  0.367473  0.670058  1
  Ti  Ti65  1  0.877935  0.395506  0.648516  1
  Ti  Ti66  1  0.364301  0.889556  0.669499  1
  Ti  Ti67  1  0.908419  0.876578  0.647850  1
  Ti  Ti68  1  0.122065  0.104494  0.648516  1
  Ti  Ti69  1  0.619029  0.132527  0.670058  1
  Ti  Ti70  1  0.091581  0.623422  0.647850  1
  Ti  Ti71  1  0.635699  0.610444  0.669499  1
  Ti  Ti72  1  0.131436  0.352706  0.573323  1
  Ti  Ti73  1  0.628775  0.368960  0.578466  1
  Ti  Ti74  1  0.170840  0.851697  0.558146  1
  Ti  Ti75  1  0.683981  0.937099  0.569461  1
  Ti  Ti76  1  0.371225  0.131040  0.578466  1
  Ti  Ti77  1  0.868564  0.147294  0.573323  1
  Ti  Ti78  1  0.316019  0.562901  0.569461  1
  Ti  Ti79  1  0.829160  0.648303  0.558146  1
  Ti  Ti80  1  0.395086  0.356827  0.476713  1
  Ti  Ti81  1  0.880507  0.384550  0.489434  1
  Ti  Ti82  1  0.396024  0.922606  0.468910  1
  Ti  Ti83  1  0.916518  0.887352  0.484021  1
  Ti  Ti84  1  0.119493  0.115450  0.489434  1
  Ti  Ti85  1  0.604914  0.143173  0.476713  1
  Ti  Ti86  1  0.083482  0.612648  0.484021  1
  Ti  Ti87  1  0.603976  0.577394  0.468910  1
  Ti  Ti88  1  0.125000  0.875000  0.737395  1
  Ti  Ti89  1  0.625000  0.875000  0.737395  1
  Ti  Ti90  1  0.375000  0.625000  0.737395  1
  Ti  Ti91  1  0.875000  0.625000  0.737395  1
  Ti  Ti92  1  0.125000  0.375000  0.737395  1
  Ti  Ti93  1  0.625000  0.375000  0.737395  1
  Ti  Ti94  1  0.375000  0.125000  0.737395  1
  Ti  Ti95  1  0.875000  0.125000  0.737395  1
  Zr  Zr96  1  0.500000  0.750000  0.569214  1
