# generated using pymatgen
data_Ti96Sn
_symmetry_space_group_name_H-M   'P 1'
_cell_length_a   9.51302000
_cell_length_b   9.35086000
_cell_length_c   18.54723000
_cell_angle_alpha   90.00000000
_cell_angle_beta   90.00000000
_cell_angle_gamma   90.00000000
_symmetry_Int_Tables_number   1
_chemical_formula_structural   Ti96Sn
_chemical_formula_sum   'Ti96 Sn1'
_cell_volume   1649.86732743
_cell_formula_units_Z   1
loop_
 _symmetry_equiv_pos_site_id
 _symmetry_equiv_pos_as_xyz
  1  'x, y, z'
loop_
 _atom_site_type_symbol
 _atom_site_label
 _atom_site_symmetry_multiplicity
 _atom_site_fract_x
 _atom_site_fract_y
 _atom_site_fract_z
 _atom_site_occupancy
  Ti  Ti0  1  0.131196  0.393905  0.401062  1
  Ti  Ti1  1  0.649204  0.359615  0.391747  1
  Ti  Ti2  1  0.169056  0.884025  0.405125  1
  Ti  Ti3  1  0.640620  0.935504  0.391629  1
  Ti  Ti4  1  0.165968  0.378397  0.233067  1
  Ti  Ti5  1  0.658615  0.387030  0.235653  1
  Ti  Ti6  1  0.156300  0.876054  0.235785  1
  Ti  Ti7  1  0.658119  0.873843  0.236180  1
  Ti  Ti8  1  0.166666  0.375000  0.077689  1
  Ti  Ti9  1  0.666666  0.375000  0.077689  1
  Ti  Ti10  1  0.166666  0.875000  0.077689  1
  Ti  Ti11  1  0.666666  0.875000  0.077689  1
  Ti  Ti12  1  0.396715  0.376043  0.321783  1
  Ti  Ti13  1  0.917133  0.359464  0.303510  1
  Ti  Ti14  1  0.405458  0.868656  0.315033  1
  Ti  Ti15  1  0.903289  0.859426  0.333018  1
  Ti  Ti16  1  0.416667  0.375000  0.155379  1
  Ti  Ti17  1  0.916667  0.375000  0.155379  1
  Ti  Ti18  1  0.416667  0.875000  0.155379  1
  Ti  Ti19  1  0.916667  0.875000  0.155379  1
  Ti  Ti20  1  0.416667  0.375000  0.000000  1
  Ti  Ti21  1  0.916667  0.375000  0.000000  1
  Ti  Ti22  1  0.416667  0.875000  0.000000  1
  Ti  Ti23  1  0.916667  0.875000  0.000000  1
  Ti  Ti24  1  0.103285  0.123957  0.321782  1
  Ti  Ti25  1  0.582867  0.140536  0.303509  1
  Ti  Ti26  1  0.094542  0.631344  0.315032  1
  Ti  Ti27  1  0.596711  0.640574  0.333017  1
  Ti  Ti28  1  0.083333  0.125000  0.155379  1
  Ti  Ti29  1  0.583333  0.125000  0.155379  1
  Ti  Ti30  1  0.083333  0.625000  0.155379  1
  Ti  Ti31  1  0.583333  0.625000  0.155379  1
  Ti  Ti32  1  0.083333  0.125000  0.000000  1
  Ti  Ti33  1  0.583333  0.125000  0.000000  1
  Ti  Ti34  1  0.083333  0.625000  0.000000  1
  Ti  Ti35  1  0.583333  0.625000  0.000000  1
  Ti  Ti36  1  0.368803  0.106095  0.401062  1
  Ti  Ti37  1  0.850795  0.140385  0.391747  1
  Ti  Ti38  1  0.330943  0.615975  0.405125  1
  Ti  Ti39  1  0.859379  0.564496  0.391629  1
  Ti  Ti40  1  0.334031  0.121603  0.233067  1
  Ti  Ti41  1  0.841384  0.112970  0.235653  1
  Ti  Ti42  1  0.343699  0.623946  0.235785  1
  Ti  Ti43  1  0.841880  0.626157  0.236180  1
  Ti  Ti44  1  0.333333  0.125000  0.077689  1
  Ti  Ti45  1  0.833333  0.125000  0.077689  1
  Ti  Ti46  1  0.333333  0.625000  0.077689  1
  Ti  Ti47  1  0.833333  0.625000  0.077689  1
  Ti  Ti48  1  0.375000  0.375000  0.823738  1
  Ti  Ti49  1  0.875000  0.375000  0.823738  1
  Ti  Ti50  1  0.375000  0.875000  0.823738  1
  Ti  Ti51  1  0.875000  0.875000  0.823738  1
  Ti  Ti52  1  0.125000  0.125000  0.823738  1
  Ti  Ti53  1  0.625000  0.125000  0.823738  1
  Ti  Ti54  1  0.125000  0.625000  0.823738  1
  Ti  Ti55  1  0.625000  0.625000  0.823738  1
  Ti  Ti56  1  0.125000  0.375000  0.910084  1
  Ti  Ti57  1  0.625000  0.375000  0.910084  1
  Ti  Ti58  1  0.125000  0.875000  0.910084  1
  Ti  Ti59  1  0.625000  0.875000  0.910084  1
  Ti  Ti60  1  0.375000  0.125000  0.910084  1
  Ti  Ti61  1  0.875000  0.125000  0.910084  1
  Ti  Ti62  1  0.375000  0.625000  0.910084  1
  Ti  Ti63  1  0.875000  0.625000  0.910084  1
  Ti  Ti64  1  0.385421  0.369436  0.643925  1
  Ti  Ti65  1  0.885632  0.365864  0.673393  1
  Ti  Ti66  1  0.383847  0.857909  0.664412  1
  Ti  Ti67  1  0.894755  0.863734  0.640769  1
  Ti  Ti68  1  0.114579  0.130564  0.643925  1
  Ti  Ti69  1  0.614368  0.134136  0.673393  1
  Ti  Ti70  1  0.116153  0.642091  0.664412  1
  Ti  Ti71  1  0.605245  0.636266  0.640769  1
  Ti  Ti72  1  0.126493  0.399851  0.577611  1
  Ti  Ti73  1  0.650775  0.365996  0.583492  1
  Ti  Ti74  1  0.164799  0.879724  0.567181  1
  Ti  Ti75  1  0.625496  0.919747  0.584203  1
  Ti  Ti76  1  0.373507  0.100149  0.577611  1
  Ti  Ti77  1  0.849225  0.134004  0.583492  1
  Ti  Ti78  1  0.335201  0.620276  0.567181  1
  Ti  Ti79  1  0.874504  0.580253  0.584203  1
  Ti  Ti80  1  0.361398  0.353429  0.488101  1
  Ti  Ti81  1  0.903450  0.346093  0.491411  1
  Ti  Ti82  1  0.428615  0.848591  0.483025  1
  Ti  Ti83  1  0.939520  0.950233  0.485851  1
  Ti  Ti84  1  0.138602  0.146571  0.488101  1
  Ti  Ti85  1  0.596550  0.153907  0.491411  1
  Ti  Ti86  1  0.071385  0.651409  0.483025  1
  Ti  Ti87  1  0.560480  0.549767  0.485851  1
  Ti  Ti88  1  0.125000  0.875000  0.737395  1
  Ti  Ti89  1  0.625000  0.875000  0.737395  1
  Ti  Ti90  1  0.375000  0.625000  0.737395  1
  Ti  Ti91  1  0.875000  0.625000  0.737395  1
  Ti  Ti92  1  0.125000  0.375000  0.737395  1
  Ti  Ti93  1  0.625000  0.375000  0.737395  1
  Ti  Ti94  1  0.375000  0.125000  0.737395  1
  Ti  Ti95  1  0.875000  0.125000  0.737395  1
  Sn  Sn96  1  0.750000  0.750000  0.485671  1
