# generated using pymatgen
data_Ti96Mo
_symmetry_space_group_name_H-M   'P 1'
_cell_length_a   9.51302000
_cell_length_b   9.35086000
_cell_length_c   18.54723000
_cell_angle_alpha   90.00000000
_cell_angle_beta   90.00000000
_cell_angle_gamma   90.00000000
_symmetry_Int_Tables_number   1
_chemical_formula_structural   Ti96Mo
_chemical_formula_sum   'Ti96 Mo1'
_cell_volume   1649.86732743
_cell_formula_units_Z   1
loop_
 _symmetry_equiv_pos_site_id
 _symmetry_equiv_pos_as_xyz
  1  'x, y, z'
loop_
 _atom_site_type_symbol
 _atom_site_label
 _atom_site_symmetry_multiplicity
 _atom_site_fract_x
 _atom_site_fract_y
 _atom_site_fract_z
 _atom_site_occupancy
  Ti  Ti0  1  0.146630  0.376185  0.399001  1
  Ti  Ti1  1  0.649943  0.379761  0.401726  1
  Ti  Ti2  1  0.162396  0.888947  0.391086  1
  Ti  Ti3  1  0.652110  0.903214  0.412008  1
  Ti  Ti4  1  0.161463  0.378427  0.237765  1
  Ti  Ti5  1  0.660869  0.377719  0.233775  1
  Ti  Ti6  1  0.157649  0.875873  0.235817  1
  Ti  Ti7  1  0.662006  0.876492  0.232305  1
  Ti  Ti8  1  0.166653  0.374990  0.077681  1
  Ti  Ti9  1  0.666666  0.374986  0.077691  1
  Ti  Ti10  1  0.166672  0.874999  0.077673  1
  Ti  Ti11  1  0.666678  0.874997  0.077684  1
  Ti  Ti12  1  0.413111  0.371176  0.316320  1
  Ti  Ti13  1  0.902968  0.377160  0.315774  1
  Ti  Ti14  1  0.415210  0.871882  0.317740  1
  Ti  Ti15  1  0.894930  0.870011  0.321038  1
  Ti  Ti16  1  0.416653  0.374979  0.155341  1
  Ti  Ti17  1  0.916638  0.374971  0.155361  1
  Ti  Ti18  1  0.416691  0.875012  0.155320  1
  Ti  Ti19  1  0.916717  0.874961  0.155328  1
  Ti  Ti20  1  0.416662  0.375009  -0.000006  1
  Ti  Ti21  1  0.916654  0.375002  0.000004  1
  Ti  Ti22  1  0.416675  0.875001  -0.000013  1
  Ti  Ti23  1  0.916659  0.874993  -0.000005  1
  Ti  Ti24  1  0.086889  0.128824  0.316319  1
  Ti  Ti25  1  0.597032  0.122840  0.315773  1
  Ti  Ti26  1  0.084790  0.628118  0.317739  1
  Ti  Ti27  1  0.605070  0.629990  0.321037  1
  Ti  Ti28  1  0.083348  0.125024  0.155341  1
  Ti  Ti29  1  0.583362  0.125031  0.155361  1
  Ti  Ti30  1  0.083309  0.624992  0.155320  1
  Ti  Ti31  1  0.583282  0.625042  0.155327  1
  Ti  Ti32  1  0.083339  0.124995  -0.000006  1
  Ti  Ti33  1  0.583346  0.125001  0.000004  1
  Ti  Ti34  1  0.083325  0.625004  -0.000013  1
  Ti  Ti35  1  0.583341  0.625011  -0.000005  1
  Ti  Ti36  1  0.353369  0.123815  0.399001  1
  Ti  Ti37  1  0.850056  0.120239  0.401726  1
  Ti  Ti38  1  0.337603  0.611053  0.391086  1
  Ti  Ti39  1  0.847889  0.596786  0.412008  1
  Ti  Ti40  1  0.338536  0.121573  0.237765  1
  Ti  Ti41  1  0.839130  0.122281  0.233775  1
  Ti  Ti42  1  0.342351  0.624128  0.235817  1
  Ti  Ti43  1  0.837993  0.623508  0.232305  1
  Ti  Ti44  1  0.333346  0.125014  0.077681  1
  Ti  Ti45  1  0.833333  0.125016  0.077691  1
  Ti  Ti46  1  0.333327  0.625005  0.077673  1
  Ti  Ti47  1  0.833322  0.625006  0.077683  1
  Ti  Ti48  1  0.374958  0.375018  0.823823  1
  Ti  Ti49  1  0.875011  0.374978  0.823796  1
  Ti  Ti50  1  0.375013  0.875012  0.823830  1
  Ti  Ti51  1  0.875024  0.874960  0.823769  1
  Ti  Ti52  1  0.125044  0.124982  0.823822  1
  Ti  Ti53  1  0.624992  0.125021  0.823796  1
  Ti  Ti54  1  0.124988  0.624987  0.823830  1
  Ti  Ti55  1  0.624979  0.625039  0.823769  1
  Ti  Ti56  1  0.124980  0.374983  0.910107  1
  Ti  Ti57  1  0.625003  0.375014  0.910088  1
  Ti  Ti58  1  0.124994  0.874996  0.910111  1
  Ti  Ti59  1  0.625013  0.874988  0.910079  1
  Ti  Ti60  1  0.375023  0.125018  0.910107  1
  Ti  Ti61  1  0.874999  0.124987  0.910087  1
  Ti  Ti62  1  0.375009  0.625004  0.910112  1
  Ti  Ti63  1  0.874989  0.625015  0.910078  1
  Ti  Ti64  1  0.397309  0.373980  0.646321  1
  Ti  Ti65  1  0.884516  0.345647  0.653899  1
  Ti  Ti66  1  0.371714  0.870993  0.671480  1
  Ti  Ti67  1  0.887208  0.870638  0.656875  1
  Ti  Ti68  1  0.102690  0.126019  0.646321  1
  Ti  Ti69  1  0.615484  0.154351  0.653898  1
  Ti  Ti70  1  0.128285  0.629004  0.671480  1
  Ti  Ti71  1  0.612791  0.629360  0.656875  1
  Ti  Ti72  1  0.147448  0.383733  0.574364  1
  Ti  Ti73  1  0.659379  0.406190  0.564762  1
  Ti  Ti74  1  0.146183  0.872665  0.576396  1
  Ti  Ti75  1  0.579257  0.916394  0.578520  1
  Ti  Ti76  1  0.352551  0.116266  0.574364  1
  Ti  Ti77  1  0.840621  0.093809  0.564762  1
  Ti  Ti78  1  0.353817  0.627335  0.576396  1
  Ti  Ti79  1  0.920743  0.583606  0.578520  1
  Ti  Ti80  1  0.388024  0.370801  0.489188  1
  Ti  Ti81  1  0.902158  0.343601  0.488863  1
  Ti  Ti82  1  0.376592  0.860322  0.479819  1
  Ti  Ti83  1  -0.067797  -0.121385  0.476092  1
  Ti  Ti84  1  0.111976  0.129199  0.489188  1
  Ti  Ti85  1  0.597842  0.156398  0.488863  1
  Ti  Ti86  1  0.123408  0.639678  0.479819  1
  Ti  Ti87  1  0.567797  0.621385  0.476092  1
  Ti  Ti88  1  0.125101  0.875131  0.737577  1
  Ti  Ti89  1  0.625029  0.875027  0.737518  1
  Ti  Ti90  1  0.374894  0.624859  0.737580  1
  Ti  Ti91  1  0.874967  0.624965  0.737518  1
  Ti  Ti92  1  0.125099  0.374900  0.737540  1
  Ti  Ti93  1  0.624860  0.375319  0.737549  1
  Ti  Ti94  1  0.374897  0.125092  0.737540  1
  Ti  Ti95  1  0.875136  0.124671  0.737552  1
  Mo  Mo96  1  0.750000  0.750000  0.542323  1
