# generated using pymatgen
data_Ti96Mo
_symmetry_space_group_name_H-M   'P 1'
_cell_length_a   9.51302000
_cell_length_b   9.35086000
_cell_length_c   18.54723000
_cell_angle_alpha   90.00000000
_cell_angle_beta   90.00000000
_cell_angle_gamma   90.00000000
_symmetry_Int_Tables_number   1
_chemical_formula_structural   Ti96Mo
_chemical_formula_sum   'Ti96 Mo1'
_cell_volume   1649.86732743
_cell_formula_units_Z   1
loop_
 _symmetry_equiv_pos_site_id
 _symmetry_equiv_pos_as_xyz
  1  'x, y, z'
loop_
 _atom_site_type_symbol
 _atom_site_label
 _atom_site_symmetry_multiplicity
 _atom_site_fract_x
 _atom_site_fract_y
 _atom_site_fract_z
 _atom_site_occupancy
  Ti  Ti0  1  0.147447  0.372545  0.402589  1
  Ti  Ti1  1  0.660656  0.354516  0.391564  1
  Ti  Ti2  1  0.143249  0.864007  0.399295  1
  Ti  Ti3  1  0.659748  0.858456  0.409463  1
  Ti  Ti4  1  0.162789  0.370115  0.236699  1
  Ti  Ti5  1  0.656897  0.373904  0.235038  1
  Ti  Ti6  1  0.162280  0.873816  0.235289  1
  Ti  Ti7  1  0.659858  0.872912  0.234858  1
  Ti  Ti8  1  0.166663  0.375012  0.077683  1
  Ti  Ti9  1  0.666674  0.374995  0.077672  1
  Ti  Ti10  1  0.166666  0.875008  0.077692  1
  Ti  Ti11  1  0.666670  0.875002  0.077690  1
  Ti  Ti12  1  0.406549  0.387853  0.318740  1
  Ti  Ti13  1  0.910396  0.379279  0.317550  1
  Ti  Ti14  1  0.402821  0.877966  0.320738  1
  Ti  Ti15  1  0.904002  0.878189  0.315408  1
  Ti  Ti16  1  0.416665  0.374962  0.155305  1
  Ti  Ti17  1  0.916686  0.374981  0.155316  1
  Ti  Ti18  1  0.416666  0.875040  0.155322  1
  Ti  Ti19  1  0.916671  0.874978  0.155337  1
  Ti  Ti20  1  0.416659  0.375009  0.000002  1
  Ti  Ti21  1  0.916659  0.375007  0.000001  1
  Ti  Ti22  1  0.416664  0.875002  -0.000009  1
  Ti  Ti23  1  0.916662  0.874993  -0.000003  1
  Ti  Ti24  1  0.089604  0.120721  0.317549  1
  Ti  Ti25  1  0.593451  0.112147  0.318739  1
  Ti  Ti26  1  0.095998  0.621811  0.315407  1
  Ti  Ti27  1  0.597179  0.622035  0.320737  1
  Ti  Ti28  1  0.083314  0.125024  0.155316  1
  Ti  Ti29  1  0.583336  0.125043  0.155304  1
  Ti  Ti30  1  0.083328  0.625026  0.155337  1
  Ti  Ti31  1  0.583335  0.624966  0.155322  1
  Ti  Ti32  1  0.083341  0.124996  0.000001  1
  Ti  Ti33  1  0.583341  0.124995  0.000001  1
  Ti  Ti34  1  0.083339  0.625012  -0.000002  1
  Ti  Ti35  1  0.583337  0.625003  -0.000008  1
  Ti  Ti36  1  0.339343  0.145484  0.391564  1
  Ti  Ti37  1  0.852552  0.127455  0.402589  1
  Ti  Ti38  1  0.340251  0.641544  0.409463  1
  Ti  Ti39  1  0.856750  0.635993  0.399295  1
  Ti  Ti40  1  0.343102  0.126096  0.235037  1
  Ti  Ti41  1  0.837210  0.129886  0.236699  1
  Ti  Ti42  1  0.340141  0.627089  0.234858  1
  Ti  Ti43  1  0.837719  0.626184  0.235289  1
  Ti  Ti44  1  0.333326  0.125009  0.077672  1
  Ti  Ti45  1  0.833336  0.124991  0.077683  1
  Ti  Ti46  1  0.333329  0.625003  0.077690  1
  Ti  Ti47  1  0.833333  0.624996  0.077693  1
  Ti  Ti48  1  0.375006  0.375000  0.823863  1
  Ti  Ti49  1  0.874985  0.374945  0.823846  1
  Ti  Ti50  1  0.375037  0.875071  0.823791  1
  Ti  Ti51  1  0.874973  0.874999  0.823804  1
  Ti  Ti52  1  0.125019  0.125050  0.823845  1
  Ti  Ti53  1  0.624999  0.125001  0.823863  1
  Ti  Ti54  1  0.125028  0.625001  0.823806  1
  Ti  Ti55  1  0.624964  0.624926  0.823794  1
  Ti  Ti56  1  0.125004  0.375022  0.910139  1
  Ti  Ti57  1  0.625003  0.375002  0.910151  1
  Ti  Ti58  1  0.125021  0.875003  0.910115  1
  Ti  Ti59  1  0.624990  0.874993  0.910122  1
  Ti  Ti60  1  0.374998  0.124997  0.910150  1
  Ti  Ti61  1  0.874999  0.124978  0.910138  1
  Ti  Ti62  1  0.375012  0.625007  0.910122  1
  Ti  Ti63  1  0.874982  0.624997  0.910116  1
  Ti  Ti64  1  0.381672  0.371508  0.669482  1
  Ti  Ti65  1  0.880987  0.391311  0.647188  1
  Ti  Ti66  1  0.379703  0.888300  0.658925  1
  Ti  Ti67  1  0.903565  0.881277  0.653735  1
  Ti  Ti68  1  0.119012  0.108688  0.647188  1
  Ti  Ti69  1  0.618327  0.128490  0.669482  1
  Ti  Ti70  1  0.096434  0.618721  0.653735  1
  Ti  Ti71  1  0.620297  0.611697  0.658925  1
  Ti  Ti72  1  0.137450  0.357900  0.572011  1
  Ti  Ti73  1  0.630153  0.356260  0.576808  1
  Ti  Ti74  1  0.160651  0.849721  0.565785  1
  Ti  Ti75  1  0.671461  0.917874  0.574742  1
  Ti  Ti76  1  0.369847  0.143739  0.576808  1
  Ti  Ti77  1  0.862550  0.142100  0.572011  1
  Ti  Ti78  1  0.328539  0.582125  0.574743  1
  Ti  Ti79  1  0.839349  0.650279  0.565785  1
  Ti  Ti80  1  0.398076  0.371913  0.479582  1
  Ti  Ti81  1  0.885100  0.383780  0.489852  1
  Ti  Ti82  1  0.378242  -0.074587  0.476397  1
  Ti  Ti83  1  0.914922  0.887611  0.487254  1
  Ti  Ti84  1  0.114899  0.116220  0.489852  1
  Ti  Ti85  1  0.601924  0.128087  0.479582  1
  Ti  Ti86  1  0.085078  0.612389  0.487254  1
  Ti  Ti87  1  0.621758  0.574586  0.476397  1
  Ti  Ti88  1  0.125368  0.875190  0.737576  1
  Ti  Ti89  1  0.625056  0.875053  0.737566  1
  Ti  Ti90  1  0.374939  0.624938  0.737567  1
  Ti  Ti91  1  0.874628  0.624801  0.737581  1
  Ti  Ti92  1  0.125017  0.374888  0.737575  1
  Ti  Ti93  1  0.625082  0.374820  0.737624  1
  Ti  Ti94  1  0.374912  0.125168  0.737622  1
  Ti  Ti95  1  0.874979  0.125103  0.737573  1
  Mo  Mo96  1  0.500000  0.750000  0.545809  1
