# generated using pymatgen
data_Ti96Nb
_symmetry_space_group_name_H-M   'P 1'
_cell_length_a   9.51302000
_cell_length_b   9.35086000
_cell_length_c   18.54723000
_cell_angle_alpha   90.00000000
_cell_angle_beta   90.00000000
_cell_angle_gamma   90.00000000
_symmetry_Int_Tables_number   1
_chemical_formula_structural   Ti96Nb
_chemical_formula_sum   'Ti96 Nb1'
_cell_volume   1649.86732743
_cell_formula_units_Z   1
loop_
 _symmetry_equiv_pos_site_id
 _symmetry_equiv_pos_as_xyz
  1  'x, y, z'
loop_
 _atom_site_type_symbol
 _atom_site_label
 _atom_site_symmetry_multiplicity
 _atom_site_fract_x
 _atom_site_fract_y
 _atom_site_fract_z
 _atom_site_occupancy
  Ti  Ti0  1  0.148107  0.375063  0.406346  1
  Ti  Ti1  1  0.643938  0.336613  0.405385  1
  Ti  Ti2  1  0.126759  0.855415  0.391787  1
  Ti  Ti3  1  0.673158  0.868514  0.391123  1
  Ti  Ti4  1  0.161939  0.370713  0.234288  1
  Ti  Ti5  1  0.659721  0.376121  0.234695  1
  Ti  Ti6  1  0.164809  0.874075  0.235259  1
  Ti  Ti7  1  0.654043  0.870770  0.236078  1
  Ti  Ti8  1  0.166666  0.375000  0.077689  1
  Ti  Ti9  1  0.666666  0.375000  0.077689  1
  Ti  Ti10  1  0.166666  0.875000  0.077689  1
  Ti  Ti11  1  0.666666  0.875000  0.077689  1
  Ti  Ti12  1  0.404297  0.380879  0.314579  1
  Ti  Ti13  1  0.897709  0.372005  0.320453  1
  Ti  Ti14  1  0.404419  0.894716  0.329592  1
  Ti  Ti15  1  0.912657  0.886111  0.307430  1
  Ti  Ti16  1  0.416667  0.375000  0.155379  1
  Ti  Ti17  1  0.916667  0.375000  0.155379  1
  Ti  Ti18  1  0.416667  0.875000  0.155379  1
  Ti  Ti19  1  0.916667  0.875000  0.155379  1
  Ti  Ti20  1  0.416667  0.375000  0.000000  1
  Ti  Ti21  1  0.916667  0.375000  0.000000  1
  Ti  Ti22  1  0.416667  0.875000  0.000000  1
  Ti  Ti23  1  0.916667  0.875000  0.000000  1
  Ti  Ti24  1  0.102291  0.127995  0.320452  1
  Ti  Ti25  1  0.595703  0.119121  0.314578  1
  Ti  Ti26  1  0.087343  0.613889  0.307429  1
  Ti  Ti27  1  0.595581  0.605284  0.329591  1
  Ti  Ti28  1  0.083333  0.125000  0.155379  1
  Ti  Ti29  1  0.583333  0.125000  0.155379  1
  Ti  Ti30  1  0.083333  0.625000  0.155379  1
  Ti  Ti31  1  0.583333  0.625000  0.155379  1
  Ti  Ti32  1  0.083333  0.125000  0.000000  1
  Ti  Ti33  1  0.583333  0.125000  0.000000  1
  Ti  Ti34  1  0.083333  0.625000  0.000000  1
  Ti  Ti35  1  0.583333  0.625000  0.000000  1
  Ti  Ti36  1  0.356061  0.163387  0.405385  1
  Ti  Ti37  1  0.851892  0.124937  0.406346  1
  Ti  Ti38  1  0.326841  0.631486  0.391123  1
  Ti  Ti39  1  0.873240  0.644585  0.391787  1
  Ti  Ti40  1  0.340278  0.123879  0.234695  1
  Ti  Ti41  1  0.838060  0.129287  0.234288  1
  Ti  Ti42  1  0.345956  0.629230  0.236078  1
  Ti  Ti43  1  0.835190  0.625925  0.235259  1
  Ti  Ti44  1  0.333333  0.125000  0.077689  1
  Ti  Ti45  1  0.833333  0.125000  0.077689  1
  Ti  Ti46  1  0.333333  0.625000  0.077689  1
  Ti  Ti47  1  0.833333  0.625000  0.077689  1
  Ti  Ti48  1  0.375000  0.375000  0.823738  1
  Ti  Ti49  1  0.875000  0.375000  0.823738  1
  Ti  Ti50  1  0.375000  0.875000  0.823738  1
  Ti  Ti51  1  0.875000  0.875000  0.823738  1
  Ti  Ti52  1  0.125000  0.125000  0.823738  1
  Ti  Ti53  1  0.625000  0.125000  0.823738  1
  Ti  Ti54  1  0.125000  0.625000  0.823738  1
  Ti  Ti55  1  0.625000  0.625000  0.823738  1
  Ti  Ti56  1  0.125000  0.375000  0.910084  1
  Ti  Ti57  1  0.625000  0.375000  0.910084  1
  Ti  Ti58  1  0.125000  0.875000  0.910084  1
  Ti  Ti59  1  0.625000  0.875000  0.910084  1
  Ti  Ti60  1  0.375000  0.125000  0.910084  1
  Ti  Ti61  1  0.875000  0.125000  0.910084  1
  Ti  Ti62  1  0.375000  0.625000  0.910084  1
  Ti  Ti63  1  0.875000  0.625000  0.910084  1
  Ti  Ti64  1  0.393799  0.384800  0.659202  1
  Ti  Ti65  1  0.891069  0.370312  0.646026  1
  Ti  Ti66  1  0.393213  0.896025  0.642633  1
  Ti  Ti67  1  0.880359  0.885796  0.670839  1
  Ti  Ti68  1  0.108931  0.129688  0.646026  1
  Ti  Ti69  1  0.606201  0.115200  0.659202  1
  Ti  Ti70  1  0.119641  0.614204  0.670839  1
  Ti  Ti71  1  0.606787  0.603975  0.642633  1
  Ti  Ti72  1  0.151551  0.379794  0.567209  1
  Ti  Ti73  1  0.637082  0.333508  0.568774  1
  Ti  Ti74  1  0.119124  0.858087  0.588176  1
  Ti  Ti75  1  0.658606  0.864942  0.579716  1
  Ti  Ti76  1  0.362918  0.166492  0.568774  1
  Ti  Ti77  1  0.848449  0.120206  0.567209  1
  Ti  Ti78  1  0.341394  0.635058  0.579716  1
  Ti  Ti79  1  0.880876  0.641913  0.588176  1
  Ti  Ti80  1  0.414786  0.420374  0.485100  1
  Ti  Ti81  1  0.902079  0.374025  0.487487  1
  Ti  Ti82  1  0.311335  -0.071715  0.489529  1
  Ti  Ti83  1  0.904950  0.877123  0.488726  1
  Ti  Ti84  1  0.097921  0.125975  0.487487  1
  Ti  Ti85  1  0.585214  0.079626  0.485100  1
  Ti  Ti86  1  0.095050  0.622877  0.488726  1
  Ti  Ti87  1  0.688665  0.571715  0.489529  1
  Ti  Ti88  1  0.125000  0.875000  0.737395  1
  Ti  Ti89  1  0.625000  0.875000  0.737395  1
  Ti  Ti90  1  0.375000  0.625000  0.737395  1
  Ti  Ti91  1  0.875000  0.625000  0.737395  1
  Ti  Ti92  1  0.125000  0.375000  0.737395  1
  Ti  Ti93  1  0.625000  0.375000  0.737395  1
  Ti  Ti94  1  0.375000  0.125000  0.737395  1
  Ti  Ti95  1  0.875000  0.125000  0.737395  1
  Nb  Nb96  1  0.500000  0.750000  0.481624  1
