# generated using pymatgen
data_Ti96Nb
_symmetry_space_group_name_H-M   'P 1'
_cell_length_a   9.51302000
_cell_length_b   9.35086000
_cell_length_c   18.54723000
_cell_angle_alpha   90.00000000
_cell_angle_beta   90.00000000
_cell_angle_gamma   90.00000000
_symmetry_Int_Tables_number   1
_chemical_formula_structural   Ti96Nb
_chemical_formula_sum   'Ti96 Nb1'
_cell_volume   1649.86732743
_cell_formula_units_Z   1
loop_
 _symmetry_equiv_pos_site_id
 _symmetry_equiv_pos_as_xyz
  1  'x, y, z'
loop_
 _atom_site_type_symbol
 _atom_site_label
 _atom_site_symmetry_multiplicity
 _atom_site_fract_x
 _atom_site_fract_y
 _atom_site_fract_z
 _atom_site_occupancy
  Ti  Ti0  1  0.137832  0.379912  0.410130  1
  Ti  Ti1  1  0.646669  0.363459  0.414440  1
  Ti  Ti2  1  0.167609  0.885438  0.400686  1
  Ti  Ti3  1  0.631810  0.929442  0.424098  1
  Ti  Ti4  1  0.156317  0.379528  0.236711  1
  Ti  Ti5  1  0.658980  0.371116  0.231168  1
  Ti  Ti6  1  0.166553  0.876771  0.237822  1
  Ti  Ti7  1  0.652432  0.893123  0.231327  1
  Ti  Ti8  1  0.166666  0.375000  0.077689  1
  Ti  Ti9  1  0.666666  0.375000  0.077689  1
  Ti  Ti10  1  0.166666  0.875000  0.077689  1
  Ti  Ti11  1  0.666666  0.875000  0.077689  1
  Ti  Ti12  1  0.387216  0.354528  0.322405  1
  Ti  Ti13  1  0.899039  0.363864  0.319377  1
  Ti  Ti14  1  0.422297  0.856155  0.323836  1
  Ti  Ti15  1  0.933993  0.924998  0.321142  1
  Ti  Ti16  1  0.416667  0.375000  0.155379  1
  Ti  Ti17  1  0.916667  0.375000  0.155379  1
  Ti  Ti18  1  0.416667  0.875000  0.155379  1
  Ti  Ti19  1  0.916667  0.875000  0.155379  1
  Ti  Ti20  1  0.416667  0.375000  0.000000  1
  Ti  Ti21  1  0.916667  0.375000  0.000000  1
  Ti  Ti22  1  0.416667  0.875000  0.000000  1
  Ti  Ti23  1  0.916667  0.875000  0.000000  1
  Ti  Ti24  1  0.112784  0.145472  0.322404  1
  Ti  Ti25  1  0.600961  0.136136  0.319376  1
  Ti  Ti26  1  0.077703  0.643845  0.323835  1
  Ti  Ti27  1  0.566007  0.575002  0.321141  1
  Ti  Ti28  1  0.083333  0.125000  0.155379  1
  Ti  Ti29  1  0.583333  0.125000  0.155379  1
  Ti  Ti30  1  0.083333  0.625000  0.155379  1
  Ti  Ti31  1  0.583333  0.625000  0.155379  1
  Ti  Ti32  1  0.083333  0.125000  0.000000  1
  Ti  Ti33  1  0.583333  0.125000  0.000000  1
  Ti  Ti34  1  0.083333  0.625000  0.000000  1
  Ti  Ti35  1  0.583333  0.625000  0.000000  1
  Ti  Ti36  1  0.362167  0.120088  0.410130  1
  Ti  Ti37  1  0.853330  0.136541  0.414440  1
  Ti  Ti38  1  0.332390  0.614562  0.400686  1
  Ti  Ti39  1  0.868189  0.570558  0.424098  1
  Ti  Ti40  1  0.343682  0.120472  0.236711  1
  Ti  Ti41  1  0.841019  0.128884  0.231168  1
  Ti  Ti42  1  0.333446  0.623229  0.237822  1
  Ti  Ti43  1  0.847567  0.606877  0.231327  1
  Ti  Ti44  1  0.333333  0.125000  0.077689  1
  Ti  Ti45  1  0.833333  0.125000  0.077689  1
  Ti  Ti46  1  0.333333  0.625000  0.077689  1
  Ti  Ti47  1  0.833333  0.625000  0.077689  1
  Ti  Ti48  1  0.375000  0.375000  0.823738  1
  Ti  Ti49  1  0.875000  0.375000  0.823738  1
  Ti  Ti50  1  0.375000  0.875000  0.823738  1
  Ti  Ti51  1  0.875000  0.875000  0.823738  1
  Ti  Ti52  1  0.125000  0.125000  0.823738  1
  Ti  Ti53  1  0.625000  0.125000  0.823738  1
  Ti  Ti54  1  0.125000  0.625000  0.823738  1
  Ti  Ti55  1  0.625000  0.625000  0.823738  1
  Ti  Ti56  1  0.125000  0.375000  0.910084  1
  Ti  Ti57  1  0.625000  0.375000  0.910084  1
  Ti  Ti58  1  0.125000  0.875000  0.910084  1
  Ti  Ti59  1  0.625000  0.875000  0.910084  1
  Ti  Ti60  1  0.375000  0.125000  0.910084  1
  Ti  Ti61  1  0.875000  0.125000  0.910084  1
  Ti  Ti62  1  0.375000  0.625000  0.910084  1
  Ti  Ti63  1  0.875000  0.625000  0.910084  1
  Ti  Ti64  1  0.400177  0.361574  0.649553  1
  Ti  Ti65  1  0.893733  0.363371  0.653908  1
  Ti  Ti66  1  0.382789  0.869131  0.664156  1
  Ti  Ti67  1  0.883180  0.869336  0.668955  1
  Ti  Ti68  1  0.099823  0.138426  0.649553  1
  Ti  Ti69  1  0.606267  0.136629  0.653908  1
  Ti  Ti70  1  0.117211  0.630869  0.664156  1
  Ti  Ti71  1  0.616820  0.630664  0.668955  1
  Ti  Ti72  1  0.158104  0.390196  0.572952  1
  Ti  Ti73  1  0.653428  0.409242  0.573571  1
  Ti  Ti74  1  0.130584  0.879426  0.581824  1
  Ti  Ti75  1  0.631015  0.871475  0.579373  1
  Ti  Ti76  1  0.341896  0.109804  0.572952  1
  Ti  Ti77  1  0.846572  0.090758  0.573571  1
  Ti  Ti78  1  0.369416  0.620574  0.581824  1
  Ti  Ti79  1  0.868985  0.628525  0.579373  1
  Ti  Ti80  1  0.400072  0.375031  0.492787  1
  Ti  Ti81  1  0.907040  0.350604  0.506342  1
  Ti  Ti82  1  0.380715  0.854748  0.493821  1
  Ti  Ti83  1  0.901307  0.853106  0.478171  1
  Ti  Ti84  1  0.099928  0.124969  0.492787  1
  Ti  Ti85  1  0.592960  0.149396  0.506342  1
  Ti  Ti86  1  0.119285  0.645252  0.493821  1
  Ti  Ti87  1  0.598693  0.646894  0.478171  1
  Ti  Ti88  1  0.125000  0.875000  0.737395  1
  Ti  Ti89  1  0.625000  0.875000  0.737395  1
  Ti  Ti90  1  0.375000  0.625000  0.737395  1
  Ti  Ti91  1  0.875000  0.625000  0.737395  1
  Ti  Ti92  1  0.125000  0.375000  0.737395  1
  Ti  Ti93  1  0.625000  0.375000  0.737395  1
  Ti  Ti94  1  0.375000  0.125000  0.737395  1
  Ti  Ti95  1  0.875000  0.125000  0.737395  1
  Nb  Nb96  1  0.750000  0.750000  0.337725  1
