# generated using pymatgen
data_Ti96Mo
_symmetry_space_group_name_H-M   'P 1'
_cell_length_a   9.51302000
_cell_length_b   9.35086000
_cell_length_c   18.54723000
_cell_angle_alpha   90.00000000
_cell_angle_beta   90.00000000
_cell_angle_gamma   90.00000000
_symmetry_Int_Tables_number   1
_chemical_formula_structural   Ti96Mo
_chemical_formula_sum   'Ti96 Mo1'
_cell_volume   1649.86732743
_cell_formula_units_Z   1
loop_
 _symmetry_equiv_pos_site_id
 _symmetry_equiv_pos_as_xyz
  1  'x, y, z'
loop_
 _atom_site_type_symbol
 _atom_site_label
 _atom_site_symmetry_multiplicity
 _atom_site_fract_x
 _atom_site_fract_y
 _atom_site_fract_z
 _atom_site_occupancy
  Ti  Ti0  1  0.130751  0.357519  0.405731  1
  Ti  Ti1  1  0.647543  0.352616  0.406847  1
  Ti  Ti2  1  0.175935  0.851892  0.401645  1
  Ti  Ti3  1  0.677706  0.928748  0.403933  1
  Ti  Ti4  1  0.157538  0.380364  0.237972  1
  Ti  Ti5  1  0.667832  0.367000  0.227430  1
  Ti  Ti6  1  0.157771  0.871566  0.233982  1
  Ti  Ti7  1  0.655059  0.858696  0.247883  1
  Ti  Ti8  1  0.166666  0.375000  0.077689  1
  Ti  Ti9  1  0.666666  0.375000  0.077689  1
  Ti  Ti10  1  0.166666  0.875000  0.077689  1
  Ti  Ti11  1  0.666666  0.875000  0.077689  1
  Ti  Ti12  1  0.403502  0.364660  0.310734  1
  Ti  Ti13  1  0.895961  0.378806  0.318451  1
  Ti  Ti14  1  0.399445  0.913536  0.313985  1
  Ti  Ti15  1  0.918572  0.879962  0.322000  1
  Ti  Ti16  1  0.416667  0.375000  0.155379  1
  Ti  Ti17  1  0.916667  0.375000  0.155379  1
  Ti  Ti18  1  0.416667  0.875000  0.155379  1
  Ti  Ti19  1  0.916667  0.875000  0.155379  1
  Ti  Ti20  1  0.416667  0.375000  0.000000  1
  Ti  Ti21  1  0.916667  0.375000  0.000000  1
  Ti  Ti22  1  0.416667  0.875000  0.000000  1
  Ti  Ti23  1  0.916667  0.875000  0.000000  1
  Ti  Ti24  1  0.104039  0.121194  0.318450  1
  Ti  Ti25  1  0.596498  0.135340  0.310733  1
  Ti  Ti26  1  0.081428  0.620038  0.321999  1
  Ti  Ti27  1  0.600555  0.586464  0.313984  1
  Ti  Ti28  1  0.083333  0.125000  0.155379  1
  Ti  Ti29  1  0.583333  0.125000  0.155379  1
  Ti  Ti30  1  0.083333  0.625000  0.155379  1
  Ti  Ti31  1  0.583333  0.625000  0.155379  1
  Ti  Ti32  1  0.083333  0.125000  0.000000  1
  Ti  Ti33  1  0.583333  0.125000  0.000000  1
  Ti  Ti34  1  0.083333  0.625000  0.000000  1
  Ti  Ti35  1  0.583333  0.625000  0.000000  1
  Ti  Ti36  1  0.352456  0.147384  0.406847  1
  Ti  Ti37  1  0.869248  0.142481  0.405731  1
  Ti  Ti38  1  0.322293  0.571252  0.403933  1
  Ti  Ti39  1  0.824064  0.648108  0.401645  1
  Ti  Ti40  1  0.332167  0.133000  0.227430  1
  Ti  Ti41  1  0.842461  0.119636  0.237972  1
  Ti  Ti42  1  0.344940  0.641304  0.247883  1
  Ti  Ti43  1  0.842228  0.628434  0.233982  1
  Ti  Ti44  1  0.333333  0.125000  0.077689  1
  Ti  Ti45  1  0.833333  0.125000  0.077689  1
  Ti  Ti46  1  0.333333  0.625000  0.077689  1
  Ti  Ti47  1  0.833333  0.625000  0.077689  1
  Ti  Ti48  1  0.375000  0.375000  0.823738  1
  Ti  Ti49  1  0.875000  0.375000  0.823738  1
  Ti  Ti50  1  0.375000  0.875000  0.823738  1
  Ti  Ti51  1  0.875000  0.875000  0.823738  1
  Ti  Ti52  1  0.125000  0.125000  0.823738  1
  Ti  Ti53  1  0.625000  0.125000  0.823738  1
  Ti  Ti54  1  0.125000  0.625000  0.823738  1
  Ti  Ti55  1  0.625000  0.625000  0.823738  1
  Ti  Ti56  1  0.125000  0.375000  0.910084  1
  Ti  Ti57  1  0.625000  0.375000  0.910084  1
  Ti  Ti58  1  0.125000  0.875000  0.910084  1
  Ti  Ti59  1  0.625000  0.875000  0.910084  1
  Ti  Ti60  1  0.375000  0.125000  0.910084  1
  Ti  Ti61  1  0.875000  0.125000  0.910084  1
  Ti  Ti62  1  0.375000  0.625000  0.910084  1
  Ti  Ti63  1  0.875000  0.625000  0.910084  1
  Ti  Ti64  1  0.389636  0.396410  0.653991  1
  Ti  Ti65  1  0.902790  0.381630  0.650554  1
  Ti  Ti66  1  0.393415  0.877584  0.653881  1
  Ti  Ti67  1  0.884831  0.886215  0.658598  1
  Ti  Ti68  1  0.097210  0.118370  0.650554  1
  Ti  Ti69  1  0.610364  0.103590  0.653991  1
  Ti  Ti70  1  0.115169  0.613785  0.658598  1
  Ti  Ti71  1  0.606585  0.622416  0.653881  1
  Ti  Ti72  1  0.147396  0.373040  0.565566  1
  Ti  Ti73  1  0.652237  0.358325  0.587294  1
  Ti  Ti74  1  0.138303  0.857758  0.579187  1
  Ti  Ti75  1  0.650510  0.855723  0.560727  1
  Ti  Ti76  1  0.347763  0.141675  0.587294  1
  Ti  Ti77  1  0.852604  0.126960  0.565566  1
  Ti  Ti78  1  0.349490  0.644277  0.560727  1
  Ti  Ti79  1  0.861697  0.642242  0.579187  1
  Ti  Ti80  1  0.404042  0.369084  0.499533  1
  Ti  Ti81  1  0.887045  0.386995  0.491177  1
  Ti  Ti82  1  0.385781  0.915645  0.498907  1
  Ti  Ti83  1  0.918005  0.880554  0.483447  1
  Ti  Ti84  1  0.112955  0.113005  0.491177  1
  Ti  Ti85  1  0.595958  0.130916  0.499533  1
  Ti  Ti86  1  0.081995  0.619446  0.483447  1
  Ti  Ti87  1  0.614219  0.584355  0.498907  1
  Ti  Ti88  1  0.125000  0.875000  0.737395  1
  Ti  Ti89  1  0.625000  0.875000  0.737395  1
  Ti  Ti90  1  0.375000  0.625000  0.737395  1
  Ti  Ti91  1  0.875000  0.625000  0.737395  1
  Ti  Ti92  1  0.125000  0.375000  0.737395  1
  Ti  Ti93  1  0.625000  0.375000  0.737395  1
  Ti  Ti94  1  0.375000  0.125000  0.737395  1
  Ti  Ti95  1  0.875000  0.125000  0.737395  1
  Mo  Mo96  1  0.500000  0.750000  0.408326  1
