# generated using pymatgen
data_Ti96Al
_symmetry_space_group_name_H-M   'P 1'
_cell_length_a   9.51302000
_cell_length_b   9.35086000
_cell_length_c   18.54723000
_cell_angle_alpha   90.00000000
_cell_angle_beta   90.00000000
_cell_angle_gamma   90.00000000
_symmetry_Int_Tables_number   1
_chemical_formula_structural   Ti96Al
_chemical_formula_sum   'Ti96 Al1'
_cell_volume   1649.86732743
_cell_formula_units_Z   1
loop_
 _symmetry_equiv_pos_site_id
 _symmetry_equiv_pos_as_xyz
  1  'x, y, z'
loop_
 _atom_site_type_symbol
 _atom_site_label
 _atom_site_symmetry_multiplicity
 _atom_site_fract_x
 _atom_site_fract_y
 _atom_site_fract_z
 _atom_site_occupancy
  Ti  Ti0  1  0.151232  0.384517  0.405195  1
  Ti  Ti1  1  0.653177  0.334221  0.418005  1
  Ti  Ti2  1  0.126863  0.854139  0.411100  1
  Ti  Ti3  1  0.664569  0.865539  0.400634  1
  Ti  Ti4  1  0.145535  0.362484  0.240231  1
  Ti  Ti5  1  0.659320  0.370454  0.234746  1
  Ti  Ti6  1  0.167984  0.867500  0.235874  1
  Ti  Ti7  1  0.676318  0.902819  0.233425  1
  Ti  Ti8  1  0.166702  0.375101  0.077323  1
  Ti  Ti9  1  0.666717  0.374993  0.077351  1
  Ti  Ti10  1  0.166684  0.875052  0.077476  1
  Ti  Ti11  1  0.666519  0.874865  0.077538  1
  Ti  Ti12  1  0.406312  0.375232  0.322523  1
  Ti  Ti13  1  0.895299  0.373172  0.327796  1
  Ti  Ti14  1  0.356904  0.938595  0.342577  1
  Ti  Ti15  1  0.915610  0.879971  0.312820  1
  Ti  Ti16  1  0.416866  0.375096  0.154894  1
  Ti  Ti17  1  0.916864  0.374759  0.154807  1
  Ti  Ti18  1  0.416422  0.875092  0.155463  1
  Ti  Ti19  1  0.916773  0.874968  0.154834  1
  Ti  Ti20  1  0.416688  0.375060  -0.000169  1
  Ti  Ti21  1  0.916645  0.374999  -0.000242  1
  Ti  Ti22  1  0.416658  0.874958  -0.000013  1
  Ti  Ti23  1  0.916641  0.874965  -0.000189  1
  Ti  Ti24  1  0.104701  0.126830  0.327794  1
  Ti  Ti25  1  0.593688  0.124770  0.322522  1
  Ti  Ti26  1  0.084390  0.620032  0.312819  1
  Ti  Ti27  1  0.643096  0.561407  0.342577  1
  Ti  Ti28  1  0.083133  0.125278  0.154803  1
  Ti  Ti29  1  0.583133  0.124934  0.154894  1
  Ti  Ti30  1  0.083227  0.625065  0.154834  1
  Ti  Ti31  1  0.583580  0.624910  0.155464  1
  Ti  Ti32  1  0.083356  0.125010  -0.000243  1
  Ti  Ti33  1  0.583314  0.124954  -0.000169  1
  Ti  Ti34  1  0.083360  0.625041  -0.000188  1
  Ti  Ti35  1  0.583344  0.625035  -0.000014  1
  Ti  Ti36  1  0.346822  0.165779  0.418005  1
  Ti  Ti37  1  0.848767  0.115483  0.405195  1
  Ti  Ti38  1  0.335430  0.634462  0.400634  1
  Ti  Ti39  1  0.873136  0.645861  0.411100  1
  Ti  Ti40  1  0.340679  0.129551  0.234745  1
  Ti  Ti41  1  0.854464  0.137523  0.240231  1
  Ti  Ti42  1  0.323680  0.597187  0.233426  1
  Ti  Ti43  1  0.832015  0.632508  0.235875  1
  Ti  Ti44  1  0.333283  0.125029  0.077351  1
  Ti  Ti45  1  0.833297  0.124923  0.077324  1
  Ti  Ti46  1  0.333480  0.625150  0.077536  1
  Ti  Ti47  1  0.833315  0.624966  0.077476  1
  Ti  Ti48  1  0.375074  0.375122  0.823746  1
  Ti  Ti49  1  0.874908  0.374966  0.823737  1
  Ti  Ti50  1  0.375070  0.874966  0.823623  1
  Ti  Ti51  1  0.874880  0.874959  0.823780  1
  Ti  Ti52  1  0.125089  0.125011  0.823735  1
  Ti  Ti53  1  0.624937  0.124874  0.823747  1
  Ti  Ti54  1  0.125125  0.625028  0.823781  1
  Ti  Ti55  1  0.624931  0.625019  0.823623  1
  Ti  Ti56  1  0.125058  0.375088  0.910016  1
  Ti  Ti57  1  0.624977  0.375117  0.910067  1
  Ti  Ti58  1  0.125123  0.874956  0.910066  1
  Ti  Ti59  1  0.624896  0.874872  0.910153  1
  Ti  Ti60  1  0.375028  0.124872  0.910071  1
  Ti  Ti61  1  0.874949  0.124906  0.910016  1
  Ti  Ti62  1  0.375106  0.625102  0.910152  1
  Ti  Ti63  1  0.874882  0.625026  0.910068  1
  Ti  Ti64  1  0.394709  0.385247  0.658189  1
  Ti  Ti65  1  0.896339  0.376671  0.651219  1
  Ti  Ti66  1  0.396690  0.887896  0.648754  1
  Ti  Ti67  1  0.891176  0.884789  0.660522  1
  Ti  Ti68  1  0.103660  0.123325  0.651219  1
  Ti  Ti69  1  0.605289  0.114747  0.658190  1
  Ti  Ti70  1  0.108821  0.615204  0.660522  1
  Ti  Ti71  1  0.603310  0.612100  0.648754  1
  Ti  Ti72  1  0.154640  0.369209  0.571685  1
  Ti  Ti73  1  0.642961  0.351275  0.574395  1
  Ti  Ti74  1  0.141204  0.865653  0.581513  1
  Ti  Ti75  1  0.654503  0.864766  0.577035  1
  Ti  Ti76  1  0.357038  0.148723  0.574395  1
  Ti  Ti77  1  0.845359  0.130789  0.571684  1
  Ti  Ti78  1  0.345497  0.635232  0.577034  1
  Ti  Ti79  1  0.858795  0.634345  0.581514  1
  Ti  Ti80  1  0.407337  0.408948  0.489399  1
  Ti  Ti81  1  0.904153  0.375461  0.488697  1
  Ti  Ti82  1  0.368490  0.898614  0.493557  1
  Ti  Ti83  1  0.903784  0.884886  0.497902  1
  Ti  Ti84  1  0.095847  0.124539  0.488697  1
  Ti  Ti85  1  0.592662  0.091052  0.489399  1
  Ti  Ti86  1  0.096215  0.615113  0.497902  1
  Ti  Ti87  1  0.631510  0.601386  0.493557  1
  Ti  Ti88  1  0.125063  0.875289  0.737636  1
  Ti  Ti89  1  0.624640  0.874828  0.737482  1
  Ti  Ti90  1  0.375354  0.625153  0.737474  1
  Ti  Ti91  1  0.874926  0.624680  0.737642  1
  Ti  Ti92  1  0.124805  0.374831  0.737570  1
  Ti  Ti93  1  0.625089  0.374887  0.737540  1
  Ti  Ti94  1  0.374903  0.125093  0.737540  1
  Ti  Ti95  1  0.875188  0.125148  0.737566  1
  Al  Al96  1  0.500000  0.750001  0.327858  1
