# generated using pymatgen
data_Ti96Sn
_symmetry_space_group_name_H-M   'P 1'
_cell_length_a   9.51302000
_cell_length_b   9.35086000
_cell_length_c   18.54723000
_cell_angle_alpha   90.00000000
_cell_angle_beta   90.00000000
_cell_angle_gamma   90.00000000
_symmetry_Int_Tables_number   1
_chemical_formula_structural   Ti96Sn
_chemical_formula_sum   'Ti96 Sn1'
_cell_volume   1649.86732743
_cell_formula_units_Z   1
loop_
 _symmetry_equiv_pos_site_id
 _symmetry_equiv_pos_as_xyz
  1  'x, y, z'
loop_
 _atom_site_type_symbol
 _atom_site_label
 _atom_site_symmetry_multiplicity
 _atom_site_fract_x
 _atom_site_fract_y
 _atom_site_fract_z
 _atom_site_occupancy
  Ti  Ti0  1  0.140294  0.373454  0.413039  1
  Ti  Ti1  1  0.654945  0.370554  0.412373  1
  Ti  Ti2  1  0.164413  0.880397  0.396075  1
  Ti  Ti3  1  0.599241  0.942101  0.427822  1
  Ti  Ti4  1  0.156632  0.375580  0.234041  1
  Ti  Ti5  1  0.659068  0.367041  0.229366  1
  Ti  Ti6  1  0.168136  0.877353  0.236341  1
  Ti  Ti7  1  0.664397  0.884655  0.233124  1
  Ti  Ti8  1  0.166666  0.375000  0.077689  1
  Ti  Ti9  1  0.666666  0.375000  0.077689  1
  Ti  Ti10  1  0.166666  0.875000  0.077689  1
  Ti  Ti11  1  0.666666  0.875000  0.077689  1
  Ti  Ti12  1  0.379242  0.354395  0.324809  1
  Ti  Ti13  1  0.899435  0.363206  0.319652  1
  Ti  Ti14  1  0.421667  0.862929  0.317536  1
  Ti  Ti15  1  0.936718  0.932423  0.312454  1
  Ti  Ti16  1  0.416667  0.375000  0.155379  1
  Ti  Ti17  1  0.916667  0.375000  0.155379  1
  Ti  Ti18  1  0.416667  0.875000  0.155379  1
  Ti  Ti19  1  0.916667  0.875000  0.155379  1
  Ti  Ti20  1  0.416667  0.375000  0.000000  1
  Ti  Ti21  1  0.916667  0.375000  0.000000  1
  Ti  Ti22  1  0.416667  0.875000  0.000000  1
  Ti  Ti23  1  0.916667  0.875000  0.000000  1
  Ti  Ti24  1  0.120758  0.145605  0.324808  1
  Ti  Ti25  1  0.600565  0.136794  0.319651  1
  Ti  Ti26  1  0.078333  0.637071  0.317535  1
  Ti  Ti27  1  0.563282  0.567577  0.312453  1
  Ti  Ti28  1  0.083333  0.125000  0.155379  1
  Ti  Ti29  1  0.583333  0.125000  0.155379  1
  Ti  Ti30  1  0.083333  0.625000  0.155379  1
  Ti  Ti31  1  0.583333  0.625000  0.155379  1
  Ti  Ti32  1  0.083333  0.125000  0.000000  1
  Ti  Ti33  1  0.583333  0.125000  0.000000  1
  Ti  Ti34  1  0.083333  0.625000  0.000000  1
  Ti  Ti35  1  0.583333  0.625000  0.000000  1
  Ti  Ti36  1  0.359705  0.126546  0.413039  1
  Ti  Ti37  1  0.845054  0.129446  0.412373  1
  Ti  Ti38  1  0.335586  0.619603  0.396075  1
  Ti  Ti39  1  0.900758  0.557899  0.427822  1
  Ti  Ti40  1  0.343367  0.124420  0.234041  1
  Ti  Ti41  1  0.840931  0.132959  0.229366  1
  Ti  Ti42  1  0.331863  0.622647  0.236341  1
  Ti  Ti43  1  0.835602  0.615345  0.233124  1
  Ti  Ti44  1  0.333333  0.125000  0.077689  1
  Ti  Ti45  1  0.833333  0.125000  0.077689  1
  Ti  Ti46  1  0.333333  0.625000  0.077689  1
  Ti  Ti47  1  0.833333  0.625000  0.077689  1
  Ti  Ti48  1  0.375000  0.375000  0.823738  1
  Ti  Ti49  1  0.875000  0.375000  0.823738  1
  Ti  Ti50  1  0.375000  0.875000  0.823738  1
  Ti  Ti51  1  0.875000  0.875000  0.823738  1
  Ti  Ti52  1  0.125000  0.125000  0.823738  1
  Ti  Ti53  1  0.625000  0.125000  0.823738  1
  Ti  Ti54  1  0.125000  0.625000  0.823738  1
  Ti  Ti55  1  0.625000  0.625000  0.823738  1
  Ti  Ti56  1  0.125000  0.375000  0.910084  1
  Ti  Ti57  1  0.625000  0.375000  0.910084  1
  Ti  Ti58  1  0.125000  0.875000  0.910084  1
  Ti  Ti59  1  0.625000  0.875000  0.910084  1
  Ti  Ti60  1  0.375000  0.125000  0.910084  1
  Ti  Ti61  1  0.875000  0.125000  0.910084  1
  Ti  Ti62  1  0.375000  0.625000  0.910084  1
  Ti  Ti63  1  0.875000  0.625000  0.910084  1
  Ti  Ti64  1  0.397570  0.360151  0.650276  1
  Ti  Ti65  1  0.890380  0.360366  0.655993  1
  Ti  Ti66  1  0.381890  0.870819  0.664302  1
  Ti  Ti67  1  0.881436  0.867656  0.669095  1
  Ti  Ti68  1  0.102430  0.139849  0.650276  1
  Ti  Ti69  1  0.609620  0.139634  0.655993  1
  Ti  Ti70  1  0.118110  0.629181  0.664302  1
  Ti  Ti71  1  0.618564  0.632344  0.669095  1
  Ti  Ti72  1  0.155974  0.384667  0.570083  1
  Ti  Ti73  1  0.652053  0.412139  0.575602  1
  Ti  Ti74  1  0.129474  0.881711  0.585945  1
  Ti  Ti75  1  0.629960  0.876731  0.578732  1
  Ti  Ti76  1  0.344026  0.115333  0.570083  1
  Ti  Ti77  1  0.847947  0.087861  0.575602  1
  Ti  Ti78  1  0.370526  0.618289  0.585945  1
  Ti  Ti79  1  0.870040  0.623269  0.578732  1
  Ti  Ti80  1  0.403231  0.389782  0.489708  1
  Ti  Ti81  1  0.904679  0.336468  0.506709  1
  Ti  Ti82  1  0.370648  0.852227  0.499442  1
  Ti  Ti83  1  0.899278  0.851426  0.482385  1
  Ti  Ti84  1  0.096769  0.110218  0.489708  1
  Ti  Ti85  1  0.595321  0.163532  0.506709  1
  Ti  Ti86  1  0.129352  0.647773  0.499442  1
  Ti  Ti87  1  0.600722  0.648574  0.482385  1
  Ti  Ti88  1  0.125000  0.875000  0.737395  1
  Ti  Ti89  1  0.625000  0.875000  0.737395  1
  Ti  Ti90  1  0.375000  0.625000  0.737395  1
  Ti  Ti91  1  0.875000  0.625000  0.737395  1
  Ti  Ti92  1  0.125000  0.375000  0.737395  1
  Ti  Ti93  1  0.625000  0.375000  0.737395  1
  Ti  Ti94  1  0.375000  0.125000  0.737395  1
  Ti  Ti95  1  0.875000  0.125000  0.737395  1
  Sn  Sn96  1  0.750000  0.750000  0.359077  1
