# generated using pymatgen
data_Ti96Sn
_symmetry_space_group_name_H-M   'P 1'
_cell_length_a   9.51302000
_cell_length_b   9.35086000
_cell_length_c   18.54723000
_cell_angle_alpha   90.00000000
_cell_angle_beta   90.00000000
_cell_angle_gamma   90.00000000
_symmetry_Int_Tables_number   1
_chemical_formula_structural   Ti96Sn
_chemical_formula_sum   'Ti96 Sn1'
_cell_volume   1649.86732743
_cell_formula_units_Z   1
loop_
 _symmetry_equiv_pos_site_id
 _symmetry_equiv_pos_as_xyz
  1  'x, y, z'
loop_
 _atom_site_type_symbol
 _atom_site_label
 _atom_site_symmetry_multiplicity
 _atom_site_fract_x
 _atom_site_fract_y
 _atom_site_fract_z
 _atom_site_occupancy
  Ti  Ti0  1  0.141500  0.372570  0.401346  1
  Ti  Ti1  1  0.647065  0.383519  0.402033  1
  Ti  Ti2  1  0.165260  0.899810  0.383486  1
  Ti  Ti3  1  0.651254  0.902373  0.416512  1
  Ti  Ti4  1  0.162181  0.380100  0.238183  1
  Ti  Ti5  1  0.661703  0.376127  0.233988  1
  Ti  Ti6  1  0.157945  0.876197  0.234608  1
  Ti  Ti7  1  0.663621  0.878785  0.232519  1
  Ti  Ti8  1  0.166666  0.375000  0.077689  1
  Ti  Ti9  1  0.666666  0.375000  0.077689  1
  Ti  Ti10  1  0.166666  0.875000  0.077689  1
  Ti  Ti11  1  0.666666  0.875000  0.077689  1
  Ti  Ti12  1  0.414249  0.366776  0.313474  1
  Ti  Ti13  1  0.901920  0.375465  0.316689  1
  Ti  Ti14  1  0.419454  0.871227  0.318661  1
  Ti  Ti15  1  0.895523  0.870333  0.316752  1
  Ti  Ti16  1  0.416667  0.375000  0.155379  1
  Ti  Ti17  1  0.916667  0.375000  0.155379  1
  Ti  Ti18  1  0.416667  0.875000  0.155379  1
  Ti  Ti19  1  0.916667  0.875000  0.155379  1
  Ti  Ti20  1  0.416667  0.375000  0.000000  1
  Ti  Ti21  1  0.916667  0.375000  0.000000  1
  Ti  Ti22  1  0.416667  0.875000  0.000000  1
  Ti  Ti23  1  0.916667  0.875000  0.000000  1
  Ti  Ti24  1  0.085751  0.133224  0.313473  1
  Ti  Ti25  1  0.598080  0.124535  0.316688  1
  Ti  Ti26  1  0.080546  0.628773  0.318660  1
  Ti  Ti27  1  0.604477  0.629667  0.316751  1
  Ti  Ti28  1  0.083333  0.125000  0.155379  1
  Ti  Ti29  1  0.583333  0.125000  0.155379  1
  Ti  Ti30  1  0.083333  0.625000  0.155379  1
  Ti  Ti31  1  0.583333  0.625000  0.155379  1
  Ti  Ti32  1  0.083333  0.125000  0.000000  1
  Ti  Ti33  1  0.583333  0.125000  0.000000  1
  Ti  Ti34  1  0.083333  0.625000  0.000000  1
  Ti  Ti35  1  0.583333  0.625000  0.000000  1
  Ti  Ti36  1  0.358499  0.127430  0.401346  1
  Ti  Ti37  1  0.852934  0.116481  0.402033  1
  Ti  Ti38  1  0.334739  0.600190  0.383486  1
  Ti  Ti39  1  0.848745  0.597627  0.416512  1
  Ti  Ti40  1  0.337818  0.119900  0.238183  1
  Ti  Ti41  1  0.838296  0.123873  0.233988  1
  Ti  Ti42  1  0.342054  0.623803  0.234608  1
  Ti  Ti43  1  0.836378  0.621215  0.232519  1
  Ti  Ti44  1  0.333333  0.125000  0.077689  1
  Ti  Ti45  1  0.833333  0.125000  0.077689  1
  Ti  Ti46  1  0.333333  0.625000  0.077689  1
  Ti  Ti47  1  0.833333  0.625000  0.077689  1
  Ti  Ti48  1  0.375000  0.375000  0.823738  1
  Ti  Ti49  1  0.875000  0.375000  0.823738  1
  Ti  Ti50  1  0.375000  0.875000  0.823738  1
  Ti  Ti51  1  0.875000  0.875000  0.823738  1
  Ti  Ti52  1  0.125000  0.125000  0.823738  1
  Ti  Ti53  1  0.625000  0.125000  0.823738  1
  Ti  Ti54  1  0.125000  0.625000  0.823738  1
  Ti  Ti55  1  0.625000  0.625000  0.823738  1
  Ti  Ti56  1  0.125000  0.375000  0.910084  1
  Ti  Ti57  1  0.625000  0.375000  0.910084  1
  Ti  Ti58  1  0.125000  0.875000  0.910084  1
  Ti  Ti59  1  0.625000  0.875000  0.910084  1
  Ti  Ti60  1  0.375000  0.125000  0.910084  1
  Ti  Ti61  1  0.875000  0.125000  0.910084  1
  Ti  Ti62  1  0.375000  0.625000  0.910084  1
  Ti  Ti63  1  0.875000  0.625000  0.910084  1
  Ti  Ti64  1  0.408878  0.382682  0.646471  1
  Ti  Ti65  1  0.879450  0.340205  0.648068  1
  Ti  Ti66  1  0.366266  0.873315  0.674278  1
  Ti  Ti67  1  0.885501  0.871597  0.665407  1
  Ti  Ti68  1  0.091122  0.117318  0.646471  1
  Ti  Ti69  1  0.620550  0.159795  0.648068  1
  Ti  Ti70  1  0.133734  0.626685  0.674278  1
  Ti  Ti71  1  0.614499  0.628403  0.665407  1
  Ti  Ti72  1  0.156061  0.372197  0.574682  1
  Ti  Ti73  1  0.662847  0.430973  0.557921  1
  Ti  Ti74  1  0.142058  0.867226  0.578917  1
  Ti  Ti75  1  0.547510  0.929874  0.577779  1
  Ti  Ti76  1  0.343939  0.127803  0.574682  1
  Ti  Ti77  1  0.837153  0.069027  0.557921  1
  Ti  Ti78  1  0.357942  0.632774  0.578917  1
  Ti  Ti79  1  0.952490  0.570126  0.577779  1
  Ti  Ti80  1  0.393082  0.378712  0.489557  1
  Ti  Ti81  1  0.899415  0.336335  0.492092  1
  Ti  Ti82  1  0.358333  0.864115  0.477047  1
  Ti  Ti83  1  0.949347  0.863267  0.466068  1
  Ti  Ti84  1  0.106918  0.121288  0.489557  1
  Ti  Ti85  1  0.600585  0.163665  0.492092  1
  Ti  Ti86  1  0.141667  0.635885  0.477047  1
  Ti  Ti87  1  0.550653  0.636733  0.466068  1
  Ti  Ti88  1  0.125000  0.875000  0.737395  1
  Ti  Ti89  1  0.625000  0.875000  0.737395  1
  Ti  Ti90  1  0.375000  0.625000  0.737395  1
  Ti  Ti91  1  0.875000  0.625000  0.737395  1
  Ti  Ti92  1  0.125000  0.375000  0.737395  1
  Ti  Ti93  1  0.625000  0.375000  0.737395  1
  Ti  Ti94  1  0.375000  0.125000  0.737395  1
  Ti  Ti95  1  0.875000  0.125000  0.737395  1
  Sn  Sn96  1  0.750000  0.750000  0.547764  1
