# generated using pymatgen
data_ZrTi96
_symmetry_space_group_name_H-M   'P 1'
_cell_length_a   9.51302000
_cell_length_b   9.35086000
_cell_length_c   18.54723000
_cell_angle_alpha   90.00000000
_cell_angle_beta   90.00000000
_cell_angle_gamma   90.00000000
_symmetry_Int_Tables_number   1
_chemical_formula_structural   ZrTi96
_chemical_formula_sum   'Zr1 Ti96'
_cell_volume   1649.86732743
_cell_formula_units_Z   1
loop_
 _symmetry_equiv_pos_site_id
 _symmetry_equiv_pos_as_xyz
  1  'x, y, z'
loop_
 _atom_site_type_symbol
 _atom_site_label
 _atom_site_symmetry_multiplicity
 _atom_site_fract_x
 _atom_site_fract_y
 _atom_site_fract_z
 _atom_site_occupancy
  Ti  Ti0  1  0.145978  0.368445  0.405064  1
  Ti  Ti1  1  0.640676  0.349973  0.401229  1
  Ti  Ti2  1  0.150030  0.856431  0.392122  1
  Ti  Ti3  1  0.678438  0.894492  0.395270  1
  Ti  Ti4  1  0.158868  0.372420  0.236410  1
  Ti  Ti5  1  0.661912  0.374264  0.234024  1
  Ti  Ti6  1  0.162490  0.875850  0.234924  1
  Ti  Ti7  1  0.662153  0.871320  0.234630  1
  Ti  Ti8  1  0.166641  0.375021  0.077647  1
  Ti  Ti9  1  0.666685  0.374997  0.077650  1
  Ti  Ti10  1  0.166644  0.874990  0.077641  1
  Ti  Ti11  1  0.666680  0.874989  0.077636  1
  Ti  Ti12  1  0.406769  0.377414  0.311504  1
  Ti  Ti13  1  0.899786  0.375610  0.321827  1
  Ti  Ti14  1  0.409529  0.882658  0.318903  1
  Ti  Ti15  1  0.913906  0.882556  0.312677  1
  Ti  Ti16  1  0.416691  0.374989  0.155303  1
  Ti  Ti17  1  0.916651  0.374962  0.155277  1
  Ti  Ti18  1  0.416648  0.874984  0.155331  1
  Ti  Ti19  1  0.916676  0.874984  0.155269  1
  Ti  Ti20  1  0.416683  0.375032  0.000054  1
  Ti  Ti21  1  0.916625  0.375016  0.000024  1
  Ti  Ti22  1  0.416678  0.874972  0.000063  1
  Ti  Ti23  1  0.916643  0.874988  0.000011  1
  Ti  Ti24  1  0.100214  0.124391  0.321826  1
  Ti  Ti25  1  0.593231  0.122586  0.311503  1
  Ti  Ti26  1  0.086094  0.617445  0.312676  1
  Ti  Ti27  1  0.590471  0.617343  0.318902  1
  Ti  Ti28  1  0.083350  0.125047  0.155277  1
  Ti  Ti29  1  0.583309  0.125020  0.155303  1
  Ti  Ti30  1  0.083324  0.625027  0.155269  1
  Ti  Ti31  1  0.583353  0.625025  0.155331  1
  Ti  Ti32  1  0.083377  0.124987  0.000024  1
  Ti  Ti33  1  0.583317  0.124971  0.000055  1
  Ti  Ti34  1  0.083357  0.625020  0.000013  1
  Ti  Ti35  1  0.583324  0.625031  0.000064  1
  Ti  Ti36  1  0.359323  0.150027  0.401229  1
  Ti  Ti37  1  0.854021  0.131555  0.405064  1
  Ti  Ti38  1  0.321561  0.605508  0.395270  1
  Ti  Ti39  1  0.849969  0.643569  0.392122  1
  Ti  Ti40  1  0.338087  0.125738  0.234024  1
  Ti  Ti41  1  0.841131  0.127582  0.236410  1
  Ti  Ti42  1  0.337846  0.628682  0.234630  1
  Ti  Ti43  1  0.837509  0.624152  0.234924  1
  Ti  Ti44  1  0.333314  0.125011  0.077650  1
  Ti  Ti45  1  0.833358  0.124987  0.077647  1
  Ti  Ti46  1  0.333320  0.625021  0.077637  1
  Ti  Ti47  1  0.833355  0.625019  0.077641  1
  Ti  Ti48  1  0.375026  0.375015  0.823920  1
  Ti  Ti49  1  0.874932  0.374894  0.823896  1
  Ti  Ti50  1  0.375017  0.874940  0.823856  1
  Ti  Ti51  1  0.875071  0.875074  0.823797  1
  Ti  Ti52  1  0.125078  0.125100  0.823895  1
  Ti  Ti53  1  0.624977  0.124987  0.823920  1
  Ti  Ti54  1  0.124927  0.624930  0.823800  1
  Ti  Ti55  1  0.624990  0.625051  0.823857  1
  Ti  Ti56  1  0.124973  0.375023  0.910159  1
  Ti  Ti57  1  0.625004  0.374983  0.910166  1
  Ti  Ti58  1  0.125009  0.874975  0.910112  1
  Ti  Ti59  1  0.624995  0.874997  0.910129  1
  Ti  Ti60  1  0.375002  0.125016  0.910166  1
  Ti  Ti61  1  0.875032  0.124976  0.910158  1
  Ti  Ti62  1  0.375010  0.625004  0.910130  1
  Ti  Ti63  1  0.874997  0.625028  0.910112  1
  Ti  Ti64  1  0.388894  0.383841  0.659662  1
  Ti  Ti65  1  0.889364  0.371288  0.648638  1
  Ti  Ti66  1  0.386379  0.893309  0.652120  1
  Ti  Ti67  1  0.888602  0.881293  0.666180  1
  Ti  Ti68  1  0.110635  0.128710  0.648638  1
  Ti  Ti69  1  0.611104  0.116156  0.659661  1
  Ti  Ti70  1  0.111396  0.618702  0.666180  1
  Ti  Ti71  1  0.613620  0.606686  0.652121  1
  Ti  Ti72  1  0.144911  0.380764  0.568192  1
  Ti  Ti73  1  0.643842  0.341788  0.573316  1
  Ti  Ti74  1  0.128910  0.861503  0.580286  1
  Ti  Ti75  1  0.666007  0.878771  0.577360  1
  Ti  Ti76  1  0.356157  0.158211  0.573315  1
  Ti  Ti77  1  0.855089  0.119236  0.568191  1
  Ti  Ti78  1  0.333993  0.621227  0.577361  1
  Ti  Ti79  1  0.871089  0.638495  0.580287  1
  Ti  Ti80  1  0.408590  0.398118  0.490942  1
  Ti  Ti81  1  0.896200  0.374975  0.487890  1
  Ti  Ti82  1  0.327320  -0.062868  0.491387  1
  Ti  Ti83  1  0.912458  0.875720  0.482718  1
  Ti  Ti84  1  0.103800  0.125025  0.487890  1
  Ti  Ti85  1  0.591410  0.101882  0.490942  1
  Ti  Ti86  1  0.087541  0.624280  0.482718  1
  Ti  Ti87  1  0.672680  0.562867  0.491387  1
  Ti  Ti88  1  0.125401  0.875003  0.737628  1
  Ti  Ti89  1  0.625200  0.875063  0.737701  1
  Ti  Ti90  1  0.374789  0.624917  0.737704  1
  Ti  Ti91  1  0.874593  0.624984  0.737633  1
  Ti  Ti92  1  0.124766  0.374929  0.737686  1
  Ti  Ti93  1  0.625060  0.374591  0.737715  1
  Ti  Ti94  1  0.374931  0.125388  0.737709  1
  Ti  Ti95  1  0.875226  0.125053  0.737682  1
  Zr  Zr96  1  0.500000  0.750000  0.484974  1
