# generated using pymatgen
data_Ti96Cr
_symmetry_space_group_name_H-M   'P 1'
_cell_length_a   9.51302000
_cell_length_b   9.35086000
_cell_length_c   18.54723000
_cell_angle_alpha   90.00000000
_cell_angle_beta   90.00000000
_cell_angle_gamma   90.00000000
_symmetry_Int_Tables_number   1
_chemical_formula_structural   Ti96Cr
_chemical_formula_sum   'Ti96 Cr1'
_cell_volume   1649.86732743
_cell_formula_units_Z   1
loop_
 _symmetry_equiv_pos_site_id
 _symmetry_equiv_pos_as_xyz
  1  'x, y, z'
loop_
 _atom_site_type_symbol
 _atom_site_label
 _atom_site_symmetry_multiplicity
 _atom_site_fract_x
 _atom_site_fract_y
 _atom_site_fract_z
 _atom_site_occupancy
  Ti  Ti0  1  0.141295  0.378269  0.405700  1
  Ti  Ti1  1  0.645191  0.361626  0.412731  1
  Ti  Ti2  1  0.166116  0.885165  0.402732  1
  Ti  Ti3  1  0.648389  0.920689  0.417056  1
  Ti  Ti4  1  0.157787  0.382148  0.238372  1
  Ti  Ti5  1  0.659509  0.373969  0.230507  1
  Ti  Ti6  1  0.163841  0.876491  0.239418  1
  Ti  Ti7  1  0.655867  0.886985  0.234446  1
  Ti  Ti8  1  0.166666  0.375000  0.077689  1
  Ti  Ti9  1  0.666666  0.375000  0.077689  1
  Ti  Ti10  1  0.166666  0.875000  0.077689  1
  Ti  Ti11  1  0.666666  0.875000  0.077689  1
  Ti  Ti12  1  0.397889  0.360309  0.319866  1
  Ti  Ti13  1  0.900024  0.364701  0.316567  1
  Ti  Ti14  1  0.424446  0.857135  0.326685  1
  Ti  Ti15  1  0.917547  0.910426  0.321548  1
  Ti  Ti16  1  0.416667  0.375000  0.155379  1
  Ti  Ti17  1  0.916667  0.375000  0.155379  1
  Ti  Ti18  1  0.416667  0.875000  0.155379  1
  Ti  Ti19  1  0.916667  0.875000  0.155379  1
  Ti  Ti20  1  0.416667  0.375000  0.000000  1
  Ti  Ti21  1  0.916667  0.375000  0.000000  1
  Ti  Ti22  1  0.416667  0.875000  0.000000  1
  Ti  Ti23  1  0.916667  0.875000  0.000000  1
  Ti  Ti24  1  0.102111  0.139691  0.319865  1
  Ti  Ti25  1  0.599976  0.135299  0.316566  1
  Ti  Ti26  1  0.075554  0.642865  0.326684  1
  Ti  Ti27  1  0.582453  0.589574  0.321547  1
  Ti  Ti28  1  0.083333  0.125000  0.155379  1
  Ti  Ti29  1  0.583333  0.125000  0.155379  1
  Ti  Ti30  1  0.083333  0.625000  0.155379  1
  Ti  Ti31  1  0.583333  0.625000  0.155379  1
  Ti  Ti32  1  0.083333  0.125000  0.000000  1
  Ti  Ti33  1  0.583333  0.125000  0.000000  1
  Ti  Ti34  1  0.083333  0.625000  0.000000  1
  Ti  Ti35  1  0.583333  0.625000  0.000000  1
  Ti  Ti36  1  0.358704  0.121731  0.405700  1
  Ti  Ti37  1  0.854808  0.138374  0.412731  1
  Ti  Ti38  1  0.333883  0.614835  0.402732  1
  Ti  Ti39  1  0.851610  0.579311  0.417056  1
  Ti  Ti40  1  0.342212  0.117852  0.238372  1
  Ti  Ti41  1  0.840490  0.126031  0.230507  1
  Ti  Ti42  1  0.336158  0.623509  0.239418  1
  Ti  Ti43  1  0.844132  0.613015  0.234446  1
  Ti  Ti44  1  0.333333  0.125000  0.077689  1
  Ti  Ti45  1  0.833333  0.125000  0.077689  1
  Ti  Ti46  1  0.333333  0.625000  0.077689  1
  Ti  Ti47  1  0.833333  0.625000  0.077689  1
  Ti  Ti48  1  0.375000  0.375000  0.823738  1
  Ti  Ti49  1  0.875000  0.375000  0.823738  1
  Ti  Ti50  1  0.375000  0.875000  0.823738  1
  Ti  Ti51  1  0.875000  0.875000  0.823738  1
  Ti  Ti52  1  0.125000  0.125000  0.823738  1
  Ti  Ti53  1  0.625000  0.125000  0.823738  1
  Ti  Ti54  1  0.125000  0.625000  0.823738  1
  Ti  Ti55  1  0.625000  0.625000  0.823738  1
  Ti  Ti56  1  0.125000  0.375000  0.910084  1
  Ti  Ti57  1  0.625000  0.375000  0.910084  1
  Ti  Ti58  1  0.125000  0.875000  0.910084  1
  Ti  Ti59  1  0.625000  0.875000  0.910084  1
  Ti  Ti60  1  0.375000  0.125000  0.910084  1
  Ti  Ti61  1  0.875000  0.125000  0.910084  1
  Ti  Ti62  1  0.375000  0.625000  0.910084  1
  Ti  Ti63  1  0.875000  0.625000  0.910084  1
  Ti  Ti64  1  0.402034  0.366467  0.649659  1
  Ti  Ti65  1  0.896625  0.366995  0.653158  1
  Ti  Ti66  1  0.395360  0.868284  0.655719  1
  Ti  Ti67  1  0.897200  0.867530  0.656915  1
  Ti  Ti68  1  0.097966  0.133533  0.649659  1
  Ti  Ti69  1  0.603375  0.133005  0.653158  1
  Ti  Ti70  1  0.104640  0.631716  0.655719  1
  Ti  Ti71  1  0.602800  0.632470  0.656915  1
  Ti  Ti72  1  0.159563  0.386217  0.573164  1
  Ti  Ti73  1  0.655029  0.396816  0.571129  1
  Ti  Ti74  1  0.145160  0.876909  0.574042  1
  Ti  Ti75  1  0.646630  0.875017  0.575037  1
  Ti  Ti76  1  0.340437  0.113783  0.573164  1
  Ti  Ti77  1  0.844971  0.103184  0.571129  1
  Ti  Ti78  1  0.354840  0.623091  0.574042  1
  Ti  Ti79  1  0.853370  0.624983  0.575037  1
  Ti  Ti80  1  0.400595  0.373024  0.491835  1
  Ti  Ti81  1  0.911292  0.359297  0.502410  1
  Ti  Ti82  1  0.396499  0.865602  0.489940  1
  Ti  Ti83  1  0.902435  0.854265  0.476905  1
  Ti  Ti84  1  0.099405  0.126976  0.491835  1
  Ti  Ti85  1  0.588708  0.140703  0.502410  1
  Ti  Ti86  1  0.103501  0.634398  0.489940  1
  Ti  Ti87  1  0.597565  0.645735  0.476905  1
  Ti  Ti88  1  0.125000  0.875000  0.737395  1
  Ti  Ti89  1  0.625000  0.875000  0.737395  1
  Ti  Ti90  1  0.375000  0.625000  0.737395  1
  Ti  Ti91  1  0.875000  0.625000  0.737395  1
  Ti  Ti92  1  0.125000  0.375000  0.737395  1
  Ti  Ti93  1  0.625000  0.375000  0.737395  1
  Ti  Ti94  1  0.375000  0.125000  0.737395  1
  Ti  Ti95  1  0.875000  0.125000  0.737395  1
  Cr  Cr96  1  0.750000  0.750000  0.335643  1
