# generated using pymatgen
data_Ti96Mo
_symmetry_space_group_name_H-M   'P 1'
_cell_length_a   9.51302000
_cell_length_b   9.35086000
_cell_length_c   18.54723000
_cell_angle_alpha   90.00000000
_cell_angle_beta   90.00000000
_cell_angle_gamma   90.00000000
_symmetry_Int_Tables_number   1
_chemical_formula_structural   Ti96Mo
_chemical_formula_sum   'Ti96 Mo1'
_cell_volume   1649.86732743
_cell_formula_units_Z   1
loop_
 _symmetry_equiv_pos_site_id
 _symmetry_equiv_pos_as_xyz
  1  'x, y, z'
loop_
 _atom_site_type_symbol
 _atom_site_label
 _atom_site_symmetry_multiplicity
 _atom_site_fract_x
 _atom_site_fract_y
 _atom_site_fract_z
 _atom_site_occupancy
  Ti  Ti0  1  0.148891  0.377390  0.407701  1
  Ti  Ti1  1  0.651360  0.338936  0.412238  1
  Ti  Ti2  1  0.128991  0.859158  0.398160  1
  Ti  Ti3  1  0.681410  0.872949  0.391484  1
  Ti  Ti4  1  0.155152  0.366875  0.236199  1
  Ti  Ti5  1  0.659787  0.372054  0.233847  1
  Ti  Ti6  1  0.166841  0.869673  0.236504  1
  Ti  Ti7  1  0.661337  0.885384  0.237997  1
  Ti  Ti8  1  0.166566  0.374987  0.077476  1
  Ti  Ti9  1  0.666707  0.375041  0.077425  1
  Ti  Ti10  1  0.166873  0.874891  0.077604  1
  Ti  Ti11  1  0.666669  0.875065  0.077586  1
  Ti  Ti12  1  0.401153  0.372736  0.319603  1
  Ti  Ti13  1  0.896080  0.371827  0.323318  1
  Ti  Ti14  1  0.393710  0.914899  0.331472  1
  Ti  Ti15  1  0.916986  0.885192  0.310236  1
  Ti  Ti16  1  0.416599  0.374653  0.154995  1
  Ti  Ti17  1  0.916488  0.375036  0.154983  1
  Ti  Ti18  1  0.416740  0.874689  0.155481  1
  Ti  Ti19  1  0.917095  0.875247  0.155008  1
  Ti  Ti20  1  0.416656  0.375028  -0.000138  1
  Ti  Ti21  1  0.916620  0.375026  -0.000171  1
  Ti  Ti22  1  0.416716  0.874930  -0.000004  1
  Ti  Ti23  1  0.916704  0.874984  -0.000143  1
  Ti  Ti24  1  0.103920  0.128174  0.323317  1
  Ti  Ti25  1  0.598847  0.127265  0.319602  1
  Ti  Ti26  1  0.083013  0.614809  0.310235  1
  Ti  Ti27  1  0.606290  0.585103  0.331471  1
  Ti  Ti28  1  0.083515  0.124981  0.154984  1
  Ti  Ti29  1  0.583404  0.125372  0.154992  1
  Ti  Ti30  1  0.082902  0.624772  0.155009  1
  Ti  Ti31  1  0.583261  0.625311  0.155476  1
  Ti  Ti32  1  0.083384  0.124978  -0.000170  1
  Ti  Ti33  1  0.583344  0.124983  -0.000135  1
  Ti  Ti34  1  0.083295  0.625023  -0.000144  1
  Ti  Ti35  1  0.583285  0.625070  -0.000006  1
  Ti  Ti36  1  0.348639  0.161064  0.412238  1
  Ti  Ti37  1  0.851107  0.122610  0.407701  1
  Ti  Ti38  1  0.318589  0.627052  0.391484  1
  Ti  Ti39  1  0.871008  0.640843  0.398159  1
  Ti  Ti40  1  0.340213  0.127949  0.233846  1
  Ti  Ti41  1  0.844847  0.133129  0.236199  1
  Ti  Ti42  1  0.338661  0.614619  0.237998  1
  Ti  Ti43  1  0.833158  0.630331  0.236503  1
  Ti  Ti44  1  0.333294  0.124971  0.077427  1
  Ti  Ti45  1  0.833435  0.125024  0.077477  1
  Ti  Ti46  1  0.333329  0.624945  0.077585  1
  Ti  Ti47  1  0.833127  0.625118  0.077601  1
  Ti  Ti48  1  0.375025  0.375151  0.823772  1
  Ti  Ti49  1  0.874920  0.375074  0.823890  1
  Ti  Ti50  1  0.375112  0.874829  0.823685  1
  Ti  Ti51  1  0.874968  0.874956  0.823663  1
  Ti  Ti52  1  0.125090  0.124919  0.823892  1
  Ti  Ti53  1  0.624974  0.124846  0.823774  1
  Ti  Ti54  1  0.125038  0.625038  0.823663  1
  Ti  Ti55  1  0.624901  0.625174  0.823682  1
  Ti  Ti56  1  0.125064  0.375138  0.909999  1
  Ti  Ti57  1  0.624932  0.375148  0.909984  1
  Ti  Ti58  1  0.125119  0.874881  0.909976  1
  Ti  Ti59  1  0.624924  0.874916  0.909942  1
  Ti  Ti60  1  0.375080  0.124855  0.909986  1
  Ti  Ti61  1  0.874944  0.124867  0.910002  1
  Ti  Ti62  1  0.375082  0.625084  0.909941  1
  Ti  Ti63  1  0.874883  0.625119  0.909973  1
  Ti  Ti64  1  0.394952  0.384802  0.657638  1
  Ti  Ti65  1  0.894026  0.371707  0.648963  1
  Ti  Ti66  1  0.395901  0.891260  0.645398  1
  Ti  Ti67  1  0.885683  0.884643  0.665667  1
  Ti  Ti68  1  0.105971  0.128286  0.648964  1
  Ti  Ti69  1  0.605045  0.115193  0.657638  1
  Ti  Ti70  1  0.114315  0.615350  0.665667  1
  Ti  Ti71  1  0.604097  0.608735  0.645399  1
  Ti  Ti72  1  0.152946  0.376024  0.568910  1
  Ti  Ti73  1  0.641984  0.342416  0.571570  1
  Ti  Ti74  1  0.129215  0.862635  0.585475  1
  Ti  Ti75  1  0.657665  0.864964  0.576432  1
  Ti  Ti76  1  0.358015  0.157583  0.571570  1
  Ti  Ti77  1  0.847053  0.123974  0.568910  1
  Ti  Ti78  1  0.342335  0.635034  0.576433  1
  Ti  Ti79  1  0.870785  0.637363  0.585475  1
  Ti  Ti80  1  0.412584  0.411979  0.486783  1
  Ti  Ti81  1  0.905471  0.374417  0.489063  1
  Ti  Ti82  1  0.332614  0.915112  0.492287  1
  Ti  Ti83  1  0.907225  0.877343  0.491573  1
  Ti  Ti84  1  0.094529  0.125582  0.489063  1
  Ti  Ti85  1  0.587415  0.088021  0.486783  1
  Ti  Ti86  1  0.092775  0.622656  0.491574  1
  Ti  Ti87  1  0.667386  0.584887  0.492288  1
  Ti  Ti88  1  0.125044  0.874758  0.737620  1
  Ti  Ti89  1  0.625298  0.875126  0.737414  1
  Ti  Ti90  1  0.374698  0.624863  0.737417  1
  Ti  Ti91  1  0.874940  0.625218  0.737616  1
  Ti  Ti92  1  0.125069  0.375190  0.737729  1
  Ti  Ti93  1  0.624866  0.375037  0.737730  1
  Ti  Ti94  1  0.375119  0.124926  0.737729  1
  Ti  Ti95  1  0.874916  0.124778  0.737735  1
  Mo  Mo96  1  0.500000  0.750000  0.431480  1
