# generated using pymatgen
data_Ti96Sn
_symmetry_space_group_name_H-M   'P 1'
_cell_length_a   9.51302000
_cell_length_b   9.35086000
_cell_length_c   18.54723000
_cell_angle_alpha   90.00000000
_cell_angle_beta   90.00000000
_cell_angle_gamma   90.00000000
_symmetry_Int_Tables_number   1
_chemical_formula_structural   Ti96Sn
_chemical_formula_sum   'Ti96 Sn1'
_cell_volume   1649.86732743
_cell_formula_units_Z   1
loop_
 _symmetry_equiv_pos_site_id
 _symmetry_equiv_pos_as_xyz
  1  'x, y, z'
loop_
 _atom_site_type_symbol
 _atom_site_label
 _atom_site_symmetry_multiplicity
 _atom_site_fract_x
 _atom_site_fract_y
 _atom_site_fract_z
 _atom_site_occupancy
  Ti  Ti0  1  0.146812  0.377411  0.401967  1
  Ti  Ti1  1  0.650663  0.338886  0.399516  1
  Ti  Ti2  1  0.123004  0.857821  0.396091  1
  Ti  Ti3  1  0.682104  0.867368  0.395994  1
  Ti  Ti4  1  0.162023  0.369652  0.235552  1
  Ti  Ti5  1  0.657147  0.374527  0.234059  1
  Ti  Ti6  1  0.166670  0.874898  0.234587  1
  Ti  Ti7  1  0.655021  0.870881  0.235053  1
  Ti  Ti8  1  0.166636  0.375033  0.077642  1
  Ti  Ti9  1  0.666684  0.375006  0.077617  1
  Ti  Ti10  1  0.166639  0.874997  0.077641  1
  Ti  Ti11  1  0.666673  0.875001  0.077638  1
  Ti  Ti12  1  0.405538  0.388462  0.316308  1
  Ti  Ti13  1  0.900808  0.376812  0.319598  1
  Ti  Ti14  1  0.398498  0.891209  0.329903  1
  Ti  Ti15  1  0.911044  0.883986  0.306993  1
  Ti  Ti16  1  0.416650  0.375015  0.155272  1
  Ti  Ti17  1  0.916671  0.374969  0.155270  1
  Ti  Ti18  1  0.416661  0.875023  0.155304  1
  Ti  Ti19  1  0.916670  0.875003  0.155298  1
  Ti  Ti20  1  0.416667  0.375026  0.000022  1
  Ti  Ti21  1  0.916643  0.375012  0.000010  1
  Ti  Ti22  1  0.416670  0.874984  0.000035  1
  Ti  Ti23  1  0.916647  0.874992  0.000016  1
  Ti  Ti24  1  0.099192  0.123188  0.319597  1
  Ti  Ti25  1  0.594462  0.111539  0.316307  1
  Ti  Ti26  1  0.088956  0.616014  0.306993  1
  Ti  Ti27  1  0.601502  0.608791  0.329902  1
  Ti  Ti28  1  0.083329  0.125040  0.155269  1
  Ti  Ti29  1  0.583350  0.124994  0.155272  1
  Ti  Ti30  1  0.083330  0.625005  0.155298  1
  Ti  Ti31  1  0.583339  0.624985  0.155304  1
  Ti  Ti32  1  0.083358  0.124991  0.000010  1
  Ti  Ti33  1  0.583334  0.124979  0.000022  1
  Ti  Ti34  1  0.083353  0.625013  0.000016  1
  Ti  Ti35  1  0.583331  0.625019  0.000035  1
  Ti  Ti36  1  0.349336  0.161114  0.399516  1
  Ti  Ti37  1  0.853186  0.122589  0.401967  1
  Ti  Ti38  1  0.317895  0.632632  0.395994  1
  Ti  Ti39  1  0.876995  0.642179  0.396091  1
  Ti  Ti40  1  0.342852  0.125475  0.234059  1
  Ti  Ti41  1  0.837976  0.130349  0.235552  1
  Ti  Ti42  1  0.344978  0.629120  0.235053  1
  Ti  Ti43  1  0.833329  0.625104  0.234587  1
  Ti  Ti44  1  0.333315  0.125002  0.077617  1
  Ti  Ti45  1  0.833364  0.124975  0.077642  1
  Ti  Ti46  1  0.333326  0.625008  0.077639  1
  Ti  Ti47  1  0.833360  0.625012  0.077641  1
  Ti  Ti48  1  0.374993  0.375026  0.823872  1
  Ti  Ti49  1  0.874976  0.374953  0.823882  1
  Ti  Ti50  1  0.375045  0.874949  0.823809  1
  Ti  Ti51  1  0.875045  0.875023  0.823827  1
  Ti  Ti52  1  0.125029  0.125039  0.823881  1
  Ti  Ti53  1  0.625013  0.124977  0.823872  1
  Ti  Ti54  1  0.124957  0.624977  0.823829  1
  Ti  Ti55  1  0.624958  0.625045  0.823810  1
  Ti  Ti56  1  0.124985  0.375020  0.910153  1
  Ti  Ti57  1  0.624997  0.375011  0.910148  1
  Ti  Ti58  1  0.125014  0.874984  0.910133  1
  Ti  Ti59  1  0.624985  0.874989  0.910129  1
  Ti  Ti60  1  0.375007  0.124988  0.910148  1
  Ti  Ti61  1  0.875019  0.124979  0.910152  1
  Ti  Ti62  1  0.375019  0.625010  0.910128  1
  Ti  Ti63  1  0.874990  0.625015  0.910133  1
  Ti  Ti64  1  0.390466  0.379705  0.664856  1
  Ti  Ti65  1  0.883653  0.383582  0.645742  1
  Ti  Ti66  1  0.385370  0.892507  0.648913  1
  Ti  Ti67  1  0.889219  0.883009  0.667315  1
  Ti  Ti68  1  0.116346  0.116416  0.645742  1
  Ti  Ti69  1  0.609532  0.120291  0.664856  1
  Ti  Ti70  1  0.110779  0.616986  0.667315  1
  Ti  Ti71  1  0.614629  0.607490  0.648913  1
  Ti  Ti72  1  0.146099  0.371478  0.574271  1
  Ti  Ti73  1  0.631525  0.339195  0.571431  1
  Ti  Ti74  1  0.131522  0.851816  0.579212  1
  Ti  Ti75  1  0.669127  0.890599  0.580967  1
  Ti  Ti76  1  0.368475  0.160805  0.571431  1
  Ti  Ti77  1  0.853901  0.128521  0.574271  1
  Ti  Ti78  1  0.330872  0.609400  0.580967  1
  Ti  Ti79  1  0.868478  0.648183  0.579212  1
  Ti  Ti80  1  0.405257  0.408084  0.482130  1
  Ti  Ti81  1  0.895809  0.370147  0.488226  1
  Ti  Ti82  1  0.317782  0.941244  0.484524  1
  Ti  Ti83  1  0.909382  0.894832  0.490987  1
  Ti  Ti84  1  0.104191  0.129853  0.488226  1
  Ti  Ti85  1  0.594743  0.091916  0.482130  1
  Ti  Ti86  1  0.090618  0.605168  0.490987  1
  Ti  Ti87  1  0.682218  0.558756  0.484524  1
  Ti  Ti88  1  0.125310  0.875096  0.737658  1
  Ti  Ti89  1  0.625032  0.875020  0.737644  1
  Ti  Ti90  1  0.374961  0.624965  0.737644  1
  Ti  Ti91  1  0.874682  0.624888  0.737663  1
  Ti  Ti92  1  0.124836  0.374910  0.737652  1
  Ti  Ti93  1  0.625047  0.374867  0.737674  1
  Ti  Ti94  1  0.374946  0.125117  0.737672  1
  Ti  Ti95  1  0.875157  0.125075  0.737649  1
  Sn  Sn96  1  0.500000  0.750000  0.493527  1
