# generated using pymatgen
data_ZrTi96
_symmetry_space_group_name_H-M   'P 1'
_cell_length_a   9.51302000
_cell_length_b   9.35086000
_cell_length_c   18.54723000
_cell_angle_alpha   90.00000000
_cell_angle_beta   90.00000000
_cell_angle_gamma   90.00000000
_symmetry_Int_Tables_number   1
_chemical_formula_structural   ZrTi96
_chemical_formula_sum   'Zr1 Ti96'
_cell_volume   1649.86732743
_cell_formula_units_Z   1
loop_
 _symmetry_equiv_pos_site_id
 _symmetry_equiv_pos_as_xyz
  1  'x, y, z'
loop_
 _atom_site_type_symbol
 _atom_site_label
 _atom_site_symmetry_multiplicity
 _atom_site_fract_x
 _atom_site_fract_y
 _atom_site_fract_z
 _atom_site_occupancy
  Ti  Ti0  1  0.145594  0.366429  0.406907  1
  Ti  Ti1  1  0.631828  0.347639  0.407321  1
  Ti  Ti2  1  0.151534  0.851606  0.390251  1
  Ti  Ti3  1  0.685043  0.906683  0.390829  1
  Ti  Ti4  1  0.157536  0.373032  0.236491  1
  Ti  Ti5  1  0.663223  0.374835  0.234131  1
  Ti  Ti6  1  0.163107  0.876684  0.234993  1
  Ti  Ti7  1  0.662050  0.870613  0.234953  1
  Ti  Ti8  1  0.166666  0.375000  0.077689  1
  Ti  Ti9  1  0.666666  0.375000  0.077689  1
  Ti  Ti10  1  0.166666  0.875000  0.077689  1
  Ti  Ti11  1  0.666666  0.875000  0.077689  1
  Ti  Ti12  1  0.406115  0.373744  0.309674  1
  Ti  Ti13  1  0.894478  0.374654  0.324286  1
  Ti  Ti14  1  0.411673  0.885829  0.320214  1
  Ti  Ti15  1  0.917741  0.884907  0.311358  1
  Ti  Ti16  1  0.416667  0.375000  0.155379  1
  Ti  Ti17  1  0.916667  0.375000  0.155379  1
  Ti  Ti18  1  0.416667  0.875000  0.155379  1
  Ti  Ti19  1  0.916667  0.875000  0.155379  1
  Ti  Ti20  1  0.416667  0.375000  0.000000  1
  Ti  Ti21  1  0.916667  0.375000  0.000000  1
  Ti  Ti22  1  0.416667  0.875000  0.000000  1
  Ti  Ti23  1  0.916667  0.875000  0.000000  1
  Ti  Ti24  1  0.105522  0.125346  0.324285  1
  Ti  Ti25  1  0.593885  0.126256  0.309673  1
  Ti  Ti26  1  0.082259  0.615093  0.311357  1
  Ti  Ti27  1  0.588327  0.614171  0.320213  1
  Ti  Ti28  1  0.083333  0.125000  0.155379  1
  Ti  Ti29  1  0.583333  0.125000  0.155379  1
  Ti  Ti30  1  0.083333  0.625000  0.155379  1
  Ti  Ti31  1  0.583333  0.625000  0.155379  1
  Ti  Ti32  1  0.083333  0.125000  0.000000  1
  Ti  Ti33  1  0.583333  0.125000  0.000000  1
  Ti  Ti34  1  0.083333  0.625000  0.000000  1
  Ti  Ti35  1  0.583333  0.625000  0.000000  1
  Ti  Ti36  1  0.368171  0.152361  0.407321  1
  Ti  Ti37  1  0.854405  0.133571  0.406907  1
  Ti  Ti38  1  0.314956  0.593317  0.390829  1
  Ti  Ti39  1  0.848465  0.648394  0.390251  1
  Ti  Ti40  1  0.336776  0.125165  0.234131  1
  Ti  Ti41  1  0.842463  0.126968  0.236491  1
  Ti  Ti42  1  0.337949  0.629387  0.234953  1
  Ti  Ti43  1  0.836892  0.623316  0.234993  1
  Ti  Ti44  1  0.333333  0.125000  0.077689  1
  Ti  Ti45  1  0.833333  0.125000  0.077689  1
  Ti  Ti46  1  0.333333  0.625000  0.077689  1
  Ti  Ti47  1  0.833333  0.625000  0.077689  1
  Ti  Ti48  1  0.375000  0.375000  0.823738  1
  Ti  Ti49  1  0.875000  0.375000  0.823738  1
  Ti  Ti50  1  0.375000  0.875000  0.823738  1
  Ti  Ti51  1  0.875000  0.875000  0.823738  1
  Ti  Ti52  1  0.125000  0.125000  0.823738  1
  Ti  Ti53  1  0.625000  0.125000  0.823738  1
  Ti  Ti54  1  0.125000  0.625000  0.823738  1
  Ti  Ti55  1  0.625000  0.625000  0.823738  1
  Ti  Ti56  1  0.125000  0.375000  0.910084  1
  Ti  Ti57  1  0.625000  0.375000  0.910084  1
  Ti  Ti58  1  0.125000  0.875000  0.910084  1
  Ti  Ti59  1  0.625000  0.875000  0.910084  1
  Ti  Ti60  1  0.375000  0.125000  0.910084  1
  Ti  Ti61  1  0.875000  0.125000  0.910084  1
  Ti  Ti62  1  0.375000  0.625000  0.910084  1
  Ti  Ti63  1  0.875000  0.625000  0.910084  1
  Ti  Ti64  1  0.391657  0.389649  0.655352  1
  Ti  Ti65  1  0.893932  0.364130  0.648157  1
  Ti  Ti66  1  0.393949  0.895286  0.645341  1
  Ti  Ti67  1  0.879414  0.882492  0.672228  1
  Ti  Ti68  1  0.106068  0.135870  0.648157  1
  Ti  Ti69  1  0.608343  0.110351  0.655352  1
  Ti  Ti70  1  0.120586  0.617508  0.672228  1
  Ti  Ti71  1  0.606051  0.604714  0.645341  1
  Ti  Ti72  1  0.150562  0.390613  0.566276  1
  Ti  Ti73  1  0.648336  0.333545  0.570641  1
  Ti  Ti74  1  0.115544  0.864342  0.588080  1
  Ti  Ti75  1  0.656765  0.855231  0.578663  1
  Ti  Ti76  1  0.351664  0.166455  0.570641  1
  Ti  Ti77  1  0.849438  0.109387  0.566276  1
  Ti  Ti78  1  0.343235  0.644769  0.578663  1
  Ti  Ti79  1  0.884456  0.635658  0.588080  1
  Ti  Ti80  1  0.414099  0.413732  0.495651  1
  Ti  Ti81  1  0.900925  0.372940  0.487487  1
  Ti  Ti82  1  0.311709  -0.064809  0.499007  1
  Ti  Ti83  1  0.910223  0.871013  0.482562  1
  Ti  Ti84  1  0.099075  0.127060  0.487487  1
  Ti  Ti85  1  0.585901  0.086268  0.495651  1
  Ti  Ti86  1  0.089777  0.628987  0.482562  1
  Ti  Ti87  1  0.688291  0.564809  0.499007  1
  Ti  Ti88  1  0.125000  0.875000  0.737395  1
  Ti  Ti89  1  0.625000  0.875000  0.737395  1
  Ti  Ti90  1  0.375000  0.625000  0.737395  1
  Ti  Ti91  1  0.875000  0.625000  0.737395  1
  Ti  Ti92  1  0.125000  0.375000  0.737395  1
  Ti  Ti93  1  0.625000  0.375000  0.737395  1
  Ti  Ti94  1  0.375000  0.125000  0.737395  1
  Ti  Ti95  1  0.875000  0.125000  0.737395  1
  Zr  Zr96  1  0.500000  0.750000  0.457630  1
