# generated using pymatgen
data_Ti96Nb
_symmetry_space_group_name_H-M   'P 1'
_cell_length_a   9.51302000
_cell_length_b   9.35086000
_cell_length_c   18.54723000
_cell_angle_alpha   90.00000000
_cell_angle_beta   90.00000000
_cell_angle_gamma   90.00000000
_symmetry_Int_Tables_number   1
_chemical_formula_structural   Ti96Nb
_chemical_formula_sum   'Ti96 Nb1'
_cell_volume   1649.86732743
_cell_formula_units_Z   1
loop_
 _symmetry_equiv_pos_site_id
 _symmetry_equiv_pos_as_xyz
  1  'x, y, z'
loop_
 _atom_site_type_symbol
 _atom_site_label
 _atom_site_symmetry_multiplicity
 _atom_site_fract_x
 _atom_site_fract_y
 _atom_site_fract_z
 _atom_site_occupancy
  Ti  Ti0  1  0.143036  0.377990  0.402582  1
  Ti  Ti1  1  0.649927  0.361147  0.398640  1
  Ti  Ti2  1  0.168541  0.882721  0.402089  1
  Ti  Ti3  1  0.634795  0.933392  0.398263  1
  Ti  Ti4  1  0.162771  0.377690  0.235419  1
  Ti  Ti5  1  0.660077  0.380140  0.234137  1
  Ti  Ti6  1  0.160164  0.875779  0.235985  1
  Ti  Ti7  1  0.656975  0.878301  0.234017  1
  Ti  Ti8  1  0.166633  0.375026  0.077602  1
  Ti  Ti9  1  0.666689  0.375036  0.077600  1
  Ti  Ti10  1  0.166705  0.875018  0.077589  1
  Ti  Ti11  1  0.666675  0.874979  0.077643  1
  Ti  Ti12  1  0.400348  0.371953  0.319737  1
  Ti  Ti13  1  0.911934  0.362081  0.309509  1
  Ti  Ti14  1  0.408280  0.867917  0.317686  1
  Ti  Ti15  1  0.912421  0.876331  0.326205  1
  Ti  Ti16  1  0.416587  0.375049  0.155220  1
  Ti  Ti17  1  0.916730  0.375054  0.155215  1
  Ti  Ti18  1  0.416726  0.874986  0.155271  1
  Ti  Ti19  1  0.916760  0.874906  0.155241  1
  Ti  Ti20  1  0.416683  0.375005  -0.000008  1
  Ti  Ti21  1  0.916644  0.375017  -0.000001  1
  Ti  Ti22  1  0.416702  0.875005  0.000005  1
  Ti  Ti23  1  0.916647  0.875000  0.000006  1
  Ti  Ti24  1  0.099652  0.128048  0.319736  1
  Ti  Ti25  1  0.588066  0.137920  0.309508  1
  Ti  Ti26  1  0.091720  0.632084  0.317685  1
  Ti  Ti27  1  0.587579  0.623670  0.326204  1
  Ti  Ti28  1  0.083416  0.124967  0.155220  1
  Ti  Ti29  1  0.583268  0.124961  0.155216  1
  Ti  Ti30  1  0.083276  0.625027  0.155272  1
  Ti  Ti31  1  0.583237  0.625110  0.155240  1
  Ti  Ti32  1  0.083320  0.125004  -0.000008  1
  Ti  Ti33  1  0.583354  0.124992  -0.000000  1
  Ti  Ti34  1  0.083303  0.625001  0.000006  1
  Ti  Ti35  1  0.583353  0.625008  0.000006  1
  Ti  Ti36  1  0.356963  0.122010  0.402582  1
  Ti  Ti37  1  0.850072  0.138854  0.398640  1
  Ti  Ti38  1  0.331458  0.617279  0.402089  1
  Ti  Ti39  1  0.865204  0.566608  0.398263  1
  Ti  Ti40  1  0.337228  0.122313  0.235419  1
  Ti  Ti41  1  0.839922  0.119863  0.234136  1
  Ti  Ti42  1  0.339835  0.624224  0.235986  1
  Ti  Ti43  1  0.843024  0.621702  0.234017  1
  Ti  Ti44  1  0.333366  0.124988  0.077602  1
  Ti  Ti45  1  0.833310  0.124978  0.077600  1
  Ti  Ti46  1  0.333295  0.624996  0.077589  1
  Ti  Ti47  1  0.833325  0.625033  0.077643  1
  Ti  Ti48  1  0.375004  0.374961  0.823938  1
  Ti  Ti49  1  0.875015  0.374942  0.823828  1
  Ti  Ti50  1  0.375043  0.875033  0.823944  1
  Ti  Ti51  1  0.874951  0.874994  0.823902  1
  Ti  Ti52  1  0.125003  0.125029  0.823937  1
  Ti  Ti53  1  0.624993  0.125055  0.823827  1
  Ti  Ti54  1  0.124961  0.624956  0.823946  1
  Ti  Ti55  1  0.625053  0.624999  0.823904  1
  Ti  Ti56  1  0.124924  0.375020  0.910147  1
  Ti  Ti57  1  0.625059  0.375023  0.910118  1
  Ti  Ti58  1  0.124927  0.874984  0.910144  1
  Ti  Ti59  1  0.625042  0.874991  0.910098  1
  Ti  Ti60  1  0.375081  0.124977  0.910146  1
  Ti  Ti61  1  0.874945  0.124974  0.910117  1
  Ti  Ti62  1  0.375079  0.625012  0.910144  1
  Ti  Ti63  1  0.874964  0.625009  0.910098  1
  Ti  Ti64  1  0.392558  0.368080  0.646629  1
  Ti  Ti65  1  0.890670  0.364970  0.665409  1
  Ti  Ti66  1  0.383484  0.861753  0.663452  1
  Ti  Ti67  1  0.892894  0.862385  0.650899  1
  Ti  Ti68  1  0.107440  0.131915  0.646629  1
  Ti  Ti69  1  0.609328  0.135025  0.665409  1
  Ti  Ti70  1  0.116513  0.638240  0.663451  1
  Ti  Ti71  1  0.607103  0.637609  0.650900  1
  Ti  Ti72  1  0.140768  0.393051  0.574589  1
  Ti  Ti73  1  0.653268  0.379746  0.580018  1
  Ti  Ti74  1  0.155475  0.878537  0.571451  1
  Ti  Ti75  1  0.627808  0.902229  0.581773  1
  Ti  Ti76  1  0.359232  0.106947  0.574589  1
  Ti  Ti77  1  0.846732  0.120252  0.580018  1
  Ti  Ti78  1  0.344524  0.621461  0.571451  1
  Ti  Ti79  1  0.872191  0.597768  0.581773  1
  Ti  Ti80  1  0.382357  0.361174  0.489781  1
  Ti  Ti81  1  0.902490  0.351187  0.495144  1
  Ti  Ti82  1  0.410338  0.854390  0.484420  1
  Ti  Ti83  1  0.929625  0.915980  0.484258  1
  Ti  Ti84  1  0.117642  0.138825  0.489781  1
  Ti  Ti85  1  0.597509  0.148813  0.495144  1
  Ti  Ti86  1  0.089661  0.645610  0.484420  1
  Ti  Ti87  1  0.570375  0.584020  0.484258  1
  Ti  Ti88  1  0.125117  0.874928  0.737822  1
  Ti  Ti89  1  0.624887  0.875238  0.737662  1
  Ti  Ti90  1  0.374869  0.625040  0.737822  1
  Ti  Ti91  1  0.875106  0.624741  0.737665  1
  Ti  Ti92  1  0.124977  0.374922  0.737693  1
  Ti  Ti93  1  0.625145  0.374797  0.737665  1
  Ti  Ti94  1  0.375014  0.125058  0.737691  1
  Ti  Ti95  1  0.874848  0.125183  0.737663  1
  Nb  Nb96  1  0.750000  0.750000  0.453083  1
