# generated using pymatgen
data_Ti96Al
_symmetry_space_group_name_H-M   'P 1'
_cell_length_a   9.51302000
_cell_length_b   9.35086000
_cell_length_c   18.54723000
_cell_angle_alpha   90.00000000
_cell_angle_beta   90.00000000
_cell_angle_gamma   90.00000000
_symmetry_Int_Tables_number   1
_chemical_formula_structural   Ti96Al
_chemical_formula_sum   'Ti96 Al1'
_cell_volume   1649.86732743
_cell_formula_units_Z   1
loop_
 _symmetry_equiv_pos_site_id
 _symmetry_equiv_pos_as_xyz
  1  'x, y, z'
loop_
 _atom_site_type_symbol
 _atom_site_label
 _atom_site_symmetry_multiplicity
 _atom_site_fract_x
 _atom_site_fract_y
 _atom_site_fract_z
 _atom_site_occupancy
  Ti  Ti0  1  0.140131  0.380460  0.410924  1
  Ti  Ti1  1  0.653518  0.372795  0.409233  1
  Ti  Ti2  1  0.163571  0.881995  0.396547  1
  Ti  Ti3  1  0.609994  0.931147  0.426520  1
  Ti  Ti4  1  0.157804  0.374487  0.234866  1
  Ti  Ti5  1  0.657979  0.367121  0.230318  1
  Ti  Ti6  1  0.168019  0.877278  0.237127  1
  Ti  Ti7  1  0.666300  0.880995  0.234645  1
  Ti  Ti8  1  0.166666  0.375000  0.077689  1
  Ti  Ti9  1  0.666666  0.375000  0.077689  1
  Ti  Ti10  1  0.166666  0.875000  0.077689  1
  Ti  Ti11  1  0.666666  0.875000  0.077689  1
  Ti  Ti12  1  0.386118  0.355429  0.323912  1
  Ti  Ti13  1  0.901009  0.369846  0.319048  1
  Ti  Ti14  1  0.424017  0.863238  0.318755  1
  Ti  Ti15  1  0.933184  0.921351  0.311839  1
  Ti  Ti16  1  0.416667  0.375000  0.155379  1
  Ti  Ti17  1  0.916667  0.375000  0.155379  1
  Ti  Ti18  1  0.416667  0.875000  0.155379  1
  Ti  Ti19  1  0.916667  0.875000  0.155379  1
  Ti  Ti20  1  0.416667  0.375000  0.000000  1
  Ti  Ti21  1  0.916667  0.375000  0.000000  1
  Ti  Ti22  1  0.416667  0.875000  0.000000  1
  Ti  Ti23  1  0.916667  0.875000  0.000000  1
  Ti  Ti24  1  0.113882  0.144571  0.323911  1
  Ti  Ti25  1  0.598991  0.130154  0.319047  1
  Ti  Ti26  1  0.075983  0.636762  0.318754  1
  Ti  Ti27  1  0.566816  0.578649  0.311838  1
  Ti  Ti28  1  0.083333  0.125000  0.155379  1
  Ti  Ti29  1  0.583333  0.125000  0.155379  1
  Ti  Ti30  1  0.083333  0.625000  0.155379  1
  Ti  Ti31  1  0.583333  0.625000  0.155379  1
  Ti  Ti32  1  0.083333  0.125000  0.000000  1
  Ti  Ti33  1  0.583333  0.125000  0.000000  1
  Ti  Ti34  1  0.083333  0.625000  0.000000  1
  Ti  Ti35  1  0.583333  0.625000  0.000000  1
  Ti  Ti36  1  0.359868  0.119540  0.410924  1
  Ti  Ti37  1  0.846481  0.127205  0.409233  1
  Ti  Ti38  1  0.336428  0.618005  0.396547  1
  Ti  Ti39  1  0.890005  0.568853  0.426520  1
  Ti  Ti40  1  0.342195  0.125513  0.234866  1
  Ti  Ti41  1  0.842020  0.132879  0.230318  1
  Ti  Ti42  1  0.331980  0.622722  0.237127  1
  Ti  Ti43  1  0.833699  0.619005  0.234645  1
  Ti  Ti44  1  0.333333  0.125000  0.077689  1
  Ti  Ti45  1  0.833333  0.125000  0.077689  1
  Ti  Ti46  1  0.333333  0.625000  0.077689  1
  Ti  Ti47  1  0.833333  0.625000  0.077689  1
  Ti  Ti48  1  0.375000  0.375000  0.823738  1
  Ti  Ti49  1  0.875000  0.375000  0.823738  1
  Ti  Ti50  1  0.375000  0.875000  0.823738  1
  Ti  Ti51  1  0.875000  0.875000  0.823738  1
  Ti  Ti52  1  0.125000  0.125000  0.823738  1
  Ti  Ti53  1  0.625000  0.125000  0.823738  1
  Ti  Ti54  1  0.125000  0.625000  0.823738  1
  Ti  Ti55  1  0.625000  0.625000  0.823738  1
  Ti  Ti56  1  0.125000  0.375000  0.910084  1
  Ti  Ti57  1  0.625000  0.375000  0.910084  1
  Ti  Ti58  1  0.125000  0.875000  0.910084  1
  Ti  Ti59  1  0.625000  0.875000  0.910084  1
  Ti  Ti60  1  0.375000  0.125000  0.910084  1
  Ti  Ti61  1  0.875000  0.125000  0.910084  1
  Ti  Ti62  1  0.375000  0.625000  0.910084  1
  Ti  Ti63  1  0.875000  0.625000  0.910084  1
  Ti  Ti64  1  0.400108  0.358924  0.649040  1
  Ti  Ti65  1  0.890931  0.360418  0.652808  1
  Ti  Ti66  1  0.381647  0.867960  0.662808  1
  Ti  Ti67  1  0.881616  0.867666  0.668871  1
  Ti  Ti68  1  0.099892  0.141076  0.649040  1
  Ti  Ti69  1  0.609069  0.139582  0.652808  1
  Ti  Ti70  1  0.118353  0.632040  0.662808  1
  Ti  Ti71  1  0.618384  0.632334  0.668871  1
  Ti  Ti72  1  0.155590  0.387590  0.571207  1
  Ti  Ti73  1  0.653431  0.415069  0.570963  1
  Ti  Ti74  1  0.127017  0.884417  0.584016  1
  Ti  Ti75  1  0.627982  0.873662  0.578708  1
  Ti  Ti76  1  0.344410  0.112410  0.571207  1
  Ti  Ti77  1  0.846569  0.084931  0.570963  1
  Ti  Ti78  1  0.372983  0.615583  0.584016  1
  Ti  Ti79  1  0.872018  0.626338  0.578708  1
  Ti  Ti80  1  0.401398  0.381984  0.489660  1
  Ti  Ti81  1  0.903715  0.340204  0.503675  1
  Ti  Ti82  1  0.370054  0.851943  0.498131  1
  Ti  Ti83  1  0.899226  0.852000  0.475725  1
  Ti  Ti84  1  0.098602  0.118016  0.489660  1
  Ti  Ti85  1  0.596285  0.159796  0.503675  1
  Ti  Ti86  1  0.129946  0.648057  0.498131  1
  Ti  Ti87  1  0.600774  0.648000  0.475725  1
  Ti  Ti88  1  0.125000  0.875000  0.737395  1
  Ti  Ti89  1  0.625000  0.875000  0.737395  1
  Ti  Ti90  1  0.375000  0.625000  0.737395  1
  Ti  Ti91  1  0.875000  0.625000  0.737395  1
  Ti  Ti92  1  0.125000  0.375000  0.737395  1
  Ti  Ti93  1  0.625000  0.375000  0.737395  1
  Ti  Ti94  1  0.375000  0.125000  0.737395  1
  Ti  Ti95  1  0.875000  0.125000  0.737395  1
  Al  Al96  1  0.750000  0.750000  0.355978  1
