# generated using pymatgen
data_ZrTi96
_symmetry_space_group_name_H-M   'P 1'
_cell_length_a   9.51302000
_cell_length_b   9.35086000
_cell_length_c   18.54723000
_cell_angle_alpha   90.00000000
_cell_angle_beta   90.00000000
_cell_angle_gamma   90.00000000
_symmetry_Int_Tables_number   1
_chemical_formula_structural   ZrTi96
_chemical_formula_sum   'Zr1 Ti96'
_cell_volume   1649.86732743
_cell_formula_units_Z   1
loop_
 _symmetry_equiv_pos_site_id
 _symmetry_equiv_pos_as_xyz
  1  'x, y, z'
loop_
 _atom_site_type_symbol
 _atom_site_label
 _atom_site_symmetry_multiplicity
 _atom_site_fract_x
 _atom_site_fract_y
 _atom_site_fract_z
 _atom_site_occupancy
  Ti  Ti0  1  0.147634  0.374025  0.401458  1
  Ti  Ti1  1  0.657227  0.384298  0.404370  1
  Ti  Ti2  1  0.164639  0.876964  0.400051  1
  Ti  Ti3  1  0.599999  0.936962  0.404701  1
  Ti  Ti4  1  0.157716  0.373508  0.237159  1
  Ti  Ti5  1  0.659877  0.377930  0.231870  1
  Ti  Ti6  1  0.163069  0.879608  0.233702  1
  Ti  Ti7  1  0.660884  0.878895  0.236667  1
  Ti  Ti8  1  0.166644  0.374943  0.077591  1
  Ti  Ti9  1  0.666698  0.374987  0.077572  1
  Ti  Ti10  1  0.166694  0.875020  0.077595  1
  Ti  Ti11  1  0.666660  0.874997  0.077678  1
  Ti  Ti12  1  0.401590  0.373196  0.321635  1
  Ti  Ti13  1  0.899684  0.354760  0.315402  1
  Ti  Ti14  1  0.405685  0.865239  0.312089  1
  Ti  Ti15  1  0.920422  0.883845  0.318940  1
  Ti  Ti16  1  0.416576  0.374999  0.155177  1
  Ti  Ti17  1  0.916776  0.374781  0.155138  1
  Ti  Ti18  1  0.416623  0.875070  0.155252  1
  Ti  Ti19  1  0.916634  0.874926  0.155173  1
  Ti  Ti20  1  0.416631  0.375010  -0.000037  1
  Ti  Ti21  1  0.916676  0.374989  -0.000032  1
  Ti  Ti22  1  0.416666  0.875001  0.000003  1
  Ti  Ti23  1  0.916661  0.874981  -0.000012  1
  Ti  Ti24  1  0.098410  0.126805  0.321634  1
  Ti  Ti25  1  0.600316  0.145240  0.315400  1
  Ti  Ti26  1  0.094315  0.634761  0.312088  1
  Ti  Ti27  1  0.579578  0.616156  0.318939  1
  Ti  Ti28  1  0.083427  0.125013  0.155176  1
  Ti  Ti29  1  0.583220  0.125233  0.155135  1
  Ti  Ti30  1  0.083378  0.624939  0.155253  1
  Ti  Ti31  1  0.583362  0.625088  0.155173  1
  Ti  Ti32  1  0.083373  0.124994  -0.000037  1
  Ti  Ti33  1  0.583322  0.125015  -0.000032  1
  Ti  Ti34  1  0.083338  0.625000  0.000004  1
  Ti  Ti35  1  0.583338  0.625022  -0.000010  1
  Ti  Ti36  1  0.352365  0.125975  0.401458  1
  Ti  Ti37  1  0.842771  0.115702  0.404370  1
  Ti  Ti38  1  0.335360  0.623036  0.400051  1
  Ti  Ti39  1  0.900000  0.563038  0.404701  1
  Ti  Ti40  1  0.342283  0.126493  0.237159  1
  Ti  Ti41  1  0.840122  0.122072  0.231870  1
  Ti  Ti42  1  0.336929  0.620394  0.233702  1
  Ti  Ti43  1  0.839115  0.621108  0.236667  1
  Ti  Ti44  1  0.333355  0.125065  0.077590  1
  Ti  Ti45  1  0.833301  0.125023  0.077572  1
  Ti  Ti46  1  0.333304  0.624988  0.077595  1
  Ti  Ti47  1  0.833340  0.625010  0.077678  1
  Ti  Ti48  1  0.374978  0.375011  0.823857  1
  Ti  Ti49  1  0.875016  0.374972  0.823878  1
  Ti  Ti50  1  0.375046  0.874998  0.823832  1
  Ti  Ti51  1  0.874987  0.875006  0.823864  1
  Ti  Ti52  1  0.125027  0.124984  0.823857  1
  Ti  Ti53  1  0.624988  0.125024  0.823877  1
  Ti  Ti54  1  0.124957  0.624995  0.823833  1
  Ti  Ti55  1  0.625015  0.624988  0.823865  1
  Ti  Ti56  1  0.124953  0.375002  0.910105  1
  Ti  Ti57  1  0.625025  0.375029  0.910120  1
  Ti  Ti58  1  0.124958  0.874975  0.910092  1
  Ti  Ti59  1  0.625016  0.874976  0.910106  1
  Ti  Ti60  1  0.375050  0.124994  0.910105  1
  Ti  Ti61  1  0.874977  0.124968  0.910120  1
  Ti  Ti62  1  0.375045  0.625019  0.910094  1
  Ti  Ti63  1  0.874985  0.625021  0.910107  1
  Ti  Ti64  1  0.393662  0.367435  0.649858  1
  Ti  Ti65  1  0.891669  0.363168  0.662822  1
  Ti  Ti66  1  0.389742  0.865966  0.662196  1
  Ti  Ti67  1  0.890464  0.860356  0.648797  1
  Ti  Ti68  1  0.106337  0.132563  0.649858  1
  Ti  Ti69  1  0.608331  0.136829  0.662821  1
  Ti  Ti70  1  0.110257  0.634030  0.662196  1
  Ti  Ti71  1  0.609536  0.639641  0.648797  1
  Ti  Ti72  1  0.141133  0.383574  0.572685  1
  Ti  Ti73  1  0.651220  0.380273  0.578725  1
  Ti  Ti74  1  0.155832  0.882665  0.577690  1
  Ti  Ti75  1  0.629767  0.908698  0.576154  1
  Ti  Ti76  1  0.358866  0.116425  0.572685  1
  Ti  Ti77  1  0.848780  0.119727  0.578725  1
  Ti  Ti78  1  0.344168  0.617334  0.577690  1
  Ti  Ti79  1  0.870233  0.591301  0.576155  1
  Ti  Ti80  1  0.385485  0.371869  0.485911  1
  Ti  Ti81  1  0.903508  0.340592  0.491082  1
  Ti  Ti82  1  0.394690  0.855858  0.490824  1
  Ti  Ti83  1  0.929592  0.901110  0.491169  1
  Ti  Ti84  1  0.114515  0.128131  0.485911  1
  Ti  Ti85  1  0.596492  0.159407  0.491082  1
  Ti  Ti86  1  0.105310  0.644142  0.490824  1
  Ti  Ti87  1  0.570408  0.598890  0.491169  1
  Ti  Ti88  1  0.124998  0.875044  0.737585  1
  Ti  Ti89  1  0.625111  0.874985  0.737604  1
  Ti  Ti90  1  0.374999  0.624943  0.737586  1
  Ti  Ti91  1  0.874883  0.625001  0.737606  1
  Ti  Ti92  1  0.124937  0.374836  0.737574  1
  Ti  Ti93  1  0.624988  0.374929  0.737664  1
  Ti  Ti94  1  0.375060  0.125155  0.737571  1
  Ti  Ti95  1  0.875005  0.125054  0.737663  1
  Zr  Zr96  1  0.750000  0.750000  0.436678  1
