# generated using pymatgen
data_Ti96Al
_symmetry_space_group_name_H-M   'P 1'
_cell_length_a   9.51302000
_cell_length_b   9.35086000
_cell_length_c   18.54723000
_cell_angle_alpha   90.00000000
_cell_angle_beta   90.00000000
_cell_angle_gamma   90.00000000
_symmetry_Int_Tables_number   1
_chemical_formula_structural   Ti96Al
_chemical_formula_sum   'Ti96 Al1'
_cell_volume   1649.86732743
_cell_formula_units_Z   1
loop_
 _symmetry_equiv_pos_site_id
 _symmetry_equiv_pos_as_xyz
  1  'x, y, z'
loop_
 _atom_site_type_symbol
 _atom_site_label
 _atom_site_symmetry_multiplicity
 _atom_site_fract_x
 _atom_site_fract_y
 _atom_site_fract_z
 _atom_site_occupancy
  Ti  Ti0  1  0.141770  0.379162  0.400958  1
  Ti  Ti1  1  0.651948  0.370700  0.395917  1
  Ti  Ti2  1  0.166201  0.887427  0.395466  1
  Ti  Ti3  1  0.647430  0.909377  0.406171  1
  Ti  Ti4  1  0.163538  0.377638  0.236329  1
  Ti  Ti5  1  0.659882  0.379468  0.235309  1
  Ti  Ti6  1  0.157587  0.875477  0.235821  1
  Ti  Ti7  1  0.661261  0.875843  0.234530  1
  Ti  Ti8  1  0.166662  0.374997  0.077670  1
  Ti  Ti9  1  0.666666  0.374987  0.077679  1
  Ti  Ti10  1  0.166674  0.875012  0.077685  1
  Ti  Ti11  1  0.666674  0.875015  0.077698  1
  Ti  Ti12  1  0.407687  0.373854  0.318054  1
  Ti  Ti13  1  0.909844  0.371249  0.311498  1
  Ti  Ti14  1  0.412813  0.872476  0.316620  1
  Ti  Ti15  1  0.899776  0.866390  0.324647  1
  Ti  Ti16  1  0.416676  0.374993  0.155322  1
  Ti  Ti17  1  0.916646  0.374992  0.155331  1
  Ti  Ti18  1  0.416705  0.875038  0.155357  1
  Ti  Ti19  1  0.916689  0.875035  0.155369  1
  Ti  Ti20  1  0.416679  0.375012  -0.000004  1
  Ti  Ti21  1  0.916654  0.375006  0.000004  1
  Ti  Ti22  1  0.416685  0.875002  0.000001  1
  Ti  Ti23  1  0.916658  0.875001  0.000008  1
  Ti  Ti24  1  0.092313  0.126146  0.318052  1
  Ti  Ti25  1  0.590156  0.128751  0.311497  1
  Ti  Ti26  1  0.087187  0.627524  0.316619  1
  Ti  Ti27  1  0.600224  0.633610  0.324646  1
  Ti  Ti28  1  0.083325  0.125011  0.155322  1
  Ti  Ti29  1  0.583353  0.125012  0.155330  1
  Ti  Ti30  1  0.083295  0.624965  0.155357  1
  Ti  Ti31  1  0.583311  0.624968  0.155369  1
  Ti  Ti32  1  0.083322  0.124993  -0.000004  1
  Ti  Ti33  1  0.583345  0.124998  0.000004  1
  Ti  Ti34  1  0.083315  0.625002  0.000001  1
  Ti  Ti35  1  0.583342  0.625004  0.000008  1
  Ti  Ti36  1  0.358229  0.120838  0.400958  1
  Ti  Ti37  1  0.848051  0.129300  0.395917  1
  Ti  Ti38  1  0.333798  0.612573  0.395466  1
  Ti  Ti39  1  0.852569  0.590623  0.406171  1
  Ti  Ti40  1  0.336461  0.122363  0.236329  1
  Ti  Ti41  1  0.840117  0.120532  0.235309  1
  Ti  Ti42  1  0.342412  0.624524  0.235821  1
  Ti  Ti43  1  0.838738  0.624158  0.234530  1
  Ti  Ti44  1  0.333337  0.125007  0.077670  1
  Ti  Ti45  1  0.833333  0.125017  0.077679  1
  Ti  Ti46  1  0.333325  0.624992  0.077685  1
  Ti  Ti47  1  0.833326  0.624989  0.077698  1
  Ti  Ti48  1  0.374998  0.375021  0.823843  1
  Ti  Ti49  1  0.875002  0.374980  0.823809  1
  Ti  Ti50  1  0.375024  0.875038  0.823832  1
  Ti  Ti51  1  0.874923  0.874964  0.823759  1
  Ti  Ti52  1  0.125004  0.124979  0.823842  1
  Ti  Ti53  1  0.625001  0.125019  0.823809  1
  Ti  Ti54  1  0.124977  0.624962  0.823832  1
  Ti  Ti55  1  0.625081  0.625035  0.823759  1
  Ti  Ti56  1  0.124986  0.374994  0.910145  1
  Ti  Ti57  1  0.625032  0.375016  0.910130  1
  Ti  Ti58  1  0.124983  0.874996  0.910140  1
  Ti  Ti59  1  0.625028  0.874993  0.910126  1
  Ti  Ti60  1  0.375018  0.125008  0.910144  1
  Ti  Ti61  1  0.874970  0.124985  0.910129  1
  Ti  Ti62  1  0.375021  0.625003  0.910140  1
  Ti  Ti63  1  0.874975  0.625008  0.910125  1
  Ti  Ti64  1  0.394844  0.374824  0.645175  1
  Ti  Ti65  1  0.885126  0.350012  0.660324  1
  Ti  Ti66  1  0.375372  0.865699  0.669206  1
  Ti  Ti67  1  0.889631  0.865435  0.652351  1
  Ti  Ti68  1  0.105155  0.125174  0.645175  1
  Ti  Ti69  1  0.614873  0.149985  0.660324  1
  Ti  Ti70  1  0.124627  0.634299  0.669206  1
  Ti  Ti71  1  0.610368  0.634563  0.652351  1
  Ti  Ti72  1  0.141577  0.386692  0.574105  1
  Ti  Ti73  1  0.657021  0.397537  0.571657  1
  Ti  Ti74  1  0.151417  0.874251  0.572915  1
  Ti  Ti75  1  0.590075  0.923236  0.581422  1
  Ti  Ti76  1  0.358423  0.113307  0.574105  1
  Ti  Ti77  1  0.842979  0.102463  0.571657  1
  Ti  Ti78  1  0.348582  0.625749  0.572915  1
  Ti  Ti79  1  0.909925  0.576763  0.581422  1
  Ti  Ti80  1  0.382455  0.366068  0.488459  1
  Ti  Ti81  1  0.900434  0.344107  0.490715  1
  Ti  Ti82  1  0.397354  0.855141  0.480767  1
  Ti  Ti83  1  0.934157  0.905229  0.475930  1
  Ti  Ti84  1  0.117545  0.133932  0.488459  1
  Ti  Ti85  1  0.599565  0.155893  0.490715  1
  Ti  Ti86  1  0.102646  0.644858  0.480767  1
  Ti  Ti87  1  0.565843  0.594771  0.475930  1
  Ti  Ti88  1  0.125093  0.875081  0.737605  1
  Ti  Ti89  1  0.625041  0.875146  0.737577  1
  Ti  Ti90  1  0.374902  0.624909  0.737607  1
  Ti  Ti91  1  0.874955  0.624844  0.737579  1
  Ti  Ti92  1  0.125136  0.374936  0.737612  1
  Ti  Ti93  1  0.624981  0.375310  0.737618  1
  Ti  Ti94  1  0.374859  0.125055  0.737612  1
  Ti  Ti95  1  0.875013  0.124678  0.737621  1
  Al  Al96  1  0.750000  0.750000  0.523673  1
