# generated using pymatgen
data_Ti96Sn
_symmetry_space_group_name_H-M   'P 1'
_cell_length_a   9.51302000
_cell_length_b   9.35086000
_cell_length_c   18.54723000
_cell_angle_alpha   90.00000000
_cell_angle_beta   90.00000000
_cell_angle_gamma   90.00000000
_symmetry_Int_Tables_number   1
_chemical_formula_structural   Ti96Sn
_chemical_formula_sum   'Ti96 Sn1'
_cell_volume   1649.86732743
_cell_formula_units_Z   1
loop_
 _symmetry_equiv_pos_site_id
 _symmetry_equiv_pos_as_xyz
  1  'x, y, z'
loop_
 _atom_site_type_symbol
 _atom_site_label
 _atom_site_symmetry_multiplicity
 _atom_site_fract_x
 _atom_site_fract_y
 _atom_site_fract_z
 _atom_site_occupancy
  Ti  Ti0  1  0.136407  0.382715  0.401016  1
  Ti  Ti1  1  0.648445  0.370630  0.396594  1
  Ti  Ti2  1  0.167808  0.892302  0.393804  1
  Ti  Ti3  1  0.646128  0.919404  0.403861  1
  Ti  Ti4  1  0.163960  0.379198  0.235452  1
  Ti  Ti5  1  0.660076  0.381588  0.234648  1
  Ti  Ti6  1  0.157266  0.876089  0.235019  1
  Ti  Ti7  1  0.660970  0.876310  0.234217  1
  Ti  Ti8  1  0.166658  0.374996  0.077656  1
  Ti  Ti9  1  0.666665  0.374991  0.077665  1
  Ti  Ti10  1  0.166678  0.875004  0.077663  1
  Ti  Ti11  1  0.666676  0.875007  0.077678  1
  Ti  Ti12  1  0.405068  0.371548  0.317379  1
  Ti  Ti13  1  0.909744  0.367388  0.309938  1
  Ti  Ti14  1  0.412590  0.869969  0.316540  1
  Ti  Ti15  1  0.900044  0.864896  0.324492  1
  Ti  Ti16  1  0.416667  0.375005  0.155294  1
  Ti  Ti17  1  0.916646  0.374996  0.155299  1
  Ti  Ti18  1  0.416718  0.875022  0.155313  1
  Ti  Ti19  1  0.916708  0.875016  0.155330  1
  Ti  Ti20  1  0.416688  0.375019  -0.000020  1
  Ti  Ti21  1  0.916650  0.375013  -0.000011  1
  Ti  Ti22  1  0.416696  0.874991  -0.000019  1
  Ti  Ti23  1  0.916650  0.874996  -0.000009  1
  Ti  Ti24  1  0.094932  0.128452  0.317378  1
  Ti  Ti25  1  0.590256  0.132613  0.309937  1
  Ti  Ti26  1  0.087410  0.630031  0.316539  1
  Ti  Ti27  1  0.599956  0.635105  0.324491  1
  Ti  Ti28  1  0.083335  0.125000  0.155295  1
  Ti  Ti29  1  0.583354  0.125009  0.155300  1
  Ti  Ti30  1  0.083282  0.624983  0.155313  1
  Ti  Ti31  1  0.583292  0.624988  0.155330  1
  Ti  Ti32  1  0.083313  0.124988  -0.000020  1
  Ti  Ti33  1  0.583350  0.124993  -0.000010  1
  Ti  Ti34  1  0.083304  0.625016  -0.000019  1
  Ti  Ti35  1  0.583351  0.625010  -0.000010  1
  Ti  Ti36  1  0.363592  0.117285  0.401016  1
  Ti  Ti37  1  0.851554  0.129370  0.396594  1
  Ti  Ti38  1  0.332191  0.607698  0.393804  1
  Ti  Ti39  1  0.853871  0.580596  0.403861  1
  Ti  Ti40  1  0.336039  0.120803  0.235452  1
  Ti  Ti41  1  0.839923  0.118413  0.234648  1
  Ti  Ti42  1  0.342733  0.623912  0.235019  1
  Ti  Ti43  1  0.839029  0.623690  0.234217  1
  Ti  Ti44  1  0.333341  0.125010  0.077656  1
  Ti  Ti45  1  0.833334  0.125014  0.077665  1
  Ti  Ti46  1  0.333321  0.625002  0.077663  1
  Ti  Ti47  1  0.833323  0.624998  0.077677  1
  Ti  Ti48  1  0.374996  0.375030  0.823861  1
  Ti  Ti49  1  0.874992  0.374984  0.823808  1
  Ti  Ti50  1  0.375039  0.874968  0.823865  1
  Ti  Ti51  1  0.874897  0.874952  0.823775  1
  Ti  Ti52  1  0.125005  0.124968  0.823862  1
  Ti  Ti53  1  0.625011  0.125016  0.823809  1
  Ti  Ti54  1  0.124964  0.625029  0.823864  1
  Ti  Ti55  1  0.625109  0.625047  0.823774  1
  Ti  Ti56  1  0.124983  0.374993  0.910144  1
  Ti  Ti57  1  0.625045  0.375015  0.910122  1
  Ti  Ti58  1  0.124983  0.874986  0.910147  1
  Ti  Ti59  1  0.625038  0.874973  0.910121  1
  Ti  Ti60  1  0.375021  0.125009  0.910144  1
  Ti  Ti61  1  0.874958  0.124985  0.910121  1
  Ti  Ti62  1  0.375022  0.625013  0.910146  1
  Ti  Ti63  1  0.874965  0.625028  0.910119  1
  Ti  Ti64  1  0.396573  0.376579  0.645485  1
  Ti  Ti65  1  0.882837  0.352111  0.661070  1
  Ti  Ti66  1  0.374844  0.865651  0.669780  1
  Ti  Ti67  1  0.889824  0.867155  0.653355  1
  Ti  Ti68  1  0.103426  0.123420  0.645485  1
  Ti  Ti69  1  0.617162  0.147886  0.661069  1
  Ti  Ti70  1  0.125155  0.634346  0.669780  1
  Ti  Ti71  1  0.610175  0.632843  0.653355  1
  Ti  Ti72  1  0.141365  0.385721  0.576263  1
  Ti  Ti73  1  0.656429  0.397097  0.570319  1
  Ti  Ti74  1  0.153964  0.873994  0.573546  1
  Ti  Ti75  1  0.583896  0.925260  0.581201  1
  Ti  Ti76  1  0.358635  0.114278  0.576263  1
  Ti  Ti77  1  0.843571  0.102902  0.570319  1
  Ti  Ti78  1  0.346035  0.626006  0.573546  1
  Ti  Ti79  1  0.916104  0.574739  0.581201  1
  Ti  Ti80  1  0.376605  0.365301  0.488938  1
  Ti  Ti81  1  0.902187  0.340821  0.491452  1
  Ti  Ti82  1  0.392630  0.857031  0.480356  1
  Ti  Ti83  1  0.945676  0.910063  0.475732  1
  Ti  Ti84  1  0.123395  0.134699  0.488938  1
  Ti  Ti85  1  0.597813  0.159179  0.491452  1
  Ti  Ti86  1  0.107370  0.642969  0.480356  1
  Ti  Ti87  1  0.554324  0.589937  0.475732  1
  Ti  Ti88  1  0.125073  0.874973  0.737671  1
  Ti  Ti89  1  0.625099  0.874998  0.737619  1
  Ti  Ti90  1  0.374920  0.625013  0.737672  1
  Ti  Ti91  1  0.874895  0.624989  0.737619  1
  Ti  Ti92  1  0.125124  0.374886  0.737655  1
  Ti  Ti93  1  0.624998  0.375404  0.737640  1
  Ti  Ti94  1  0.374869  0.125102  0.737655  1
  Ti  Ti95  1  0.874996  0.124581  0.737645  1
  Sn  Sn96  1  0.750000  0.750000  0.517053  1
