# generated using pymatgen
data_Ti96Sn
_symmetry_space_group_name_H-M   'P 1'
_cell_length_a   9.51302000
_cell_length_b   9.35086000
_cell_length_c   18.54723000
_cell_angle_alpha   90.00000000
_cell_angle_beta   90.00000000
_cell_angle_gamma   90.00000000
_symmetry_Int_Tables_number   1
_chemical_formula_structural   Ti96Sn
_chemical_formula_sum   'Ti96 Sn1'
_cell_volume   1649.86732743
_cell_formula_units_Z   1
loop_
 _symmetry_equiv_pos_site_id
 _symmetry_equiv_pos_as_xyz
  1  'x, y, z'
loop_
 _atom_site_type_symbol
 _atom_site_label
 _atom_site_symmetry_multiplicity
 _atom_site_fract_x
 _atom_site_fract_y
 _atom_site_fract_z
 _atom_site_occupancy
  Ti  Ti0  1  0.145855  0.379313  0.401413  1
  Ti  Ti1  1  0.656937  0.342599  0.392561  1
  Ti  Ti2  1  0.129639  0.860070  0.398668  1
  Ti  Ti3  1  0.674741  0.862898  0.403502  1
  Ti  Ti4  1  0.162468  0.370014  0.236383  1
  Ti  Ti5  1  0.655397  0.373424  0.233739  1
  Ti  Ti6  1  0.165361  0.874861  0.234312  1
  Ti  Ti7  1  0.657432  0.871246  0.234170  1
  Ti  Ti8  1  0.166672  0.375037  0.077665  1
  Ti  Ti9  1  0.666679  0.375009  0.077632  1
  Ti  Ti10  1  0.166662  0.874987  0.077677  1
  Ti  Ti11  1  0.666685  0.874985  0.077651  1
  Ti  Ti12  1  0.405532  0.395342  0.318605  1
  Ti  Ti13  1  0.905537  0.378699  0.318167  1
  Ti  Ti14  1  0.398092  0.884446  0.325735  1
  Ti  Ti15  1  0.907449  0.880598  0.310164  1
  Ti  Ti16  1  0.416690  0.375011  0.155244  1
  Ti  Ti17  1  0.916685  0.374964  0.155245  1
  Ti  Ti18  1  0.416659  0.874994  0.155275  1
  Ti  Ti19  1  0.916692  0.874980  0.155268  1
  Ti  Ti20  1  0.416662  0.375036  -0.000024  1
  Ti  Ti21  1  0.916638  0.375021  -0.000011  1
  Ti  Ti22  1  0.416658  0.874976  -0.000041  1
  Ti  Ti23  1  0.916649  0.874986  -0.000022  1
  Ti  Ti24  1  0.094463  0.121302  0.318166  1
  Ti  Ti25  1  0.594468  0.104658  0.318604  1
  Ti  Ti26  1  0.092551  0.619403  0.310163  1
  Ti  Ti27  1  0.601908  0.615554  0.325734  1
  Ti  Ti28  1  0.083315  0.125046  0.155245  1
  Ti  Ti29  1  0.583310  0.124998  0.155245  1
  Ti  Ti30  1  0.083308  0.625030  0.155268  1
  Ti  Ti31  1  0.583341  0.625015  0.155275  1
  Ti  Ti32  1  0.083364  0.124986  -0.000010  1
  Ti  Ti33  1  0.583339  0.124973  -0.000022  1
  Ti  Ti34  1  0.083351  0.625025  -0.000022  1
  Ti  Ti35  1  0.583343  0.625035  -0.000041  1
  Ti  Ti36  1  0.343062  0.157401  0.392561  1
  Ti  Ti37  1  0.854144  0.120687  0.401413  1
  Ti  Ti38  1  0.325258  0.637102  0.403502  1
  Ti  Ti39  1  0.870360  0.639930  0.398668  1
  Ti  Ti40  1  0.344602  0.126578  0.233739  1
  Ti  Ti41  1  0.837531  0.129988  0.236383  1
  Ti  Ti42  1  0.342567  0.628755  0.234170  1
  Ti  Ti43  1  0.834638  0.625140  0.234311  1
  Ti  Ti44  1  0.333320  0.125000  0.077633  1
  Ti  Ti45  1  0.833328  0.124971  0.077665  1
  Ti  Ti46  1  0.333314  0.625025  0.077651  1
  Ti  Ti47  1  0.833337  0.625022  0.077677  1
  Ti  Ti48  1  0.374969  0.375046  0.823920  1
  Ti  Ti49  1  0.874983  0.374974  0.823925  1
  Ti  Ti50  1  0.375048  0.874902  0.823794  1
  Ti  Ti51  1  0.875052  0.874986  0.823853  1
  Ti  Ti52  1  0.125021  0.125016  0.823925  1
  Ti  Ti53  1  0.625037  0.124955  0.823921  1
  Ti  Ti54  1  0.124952  0.625014  0.823854  1
  Ti  Ti55  1  0.624956  0.625090  0.823795  1
  Ti  Ti56  1  0.124982  0.375032  0.910181  1
  Ti  Ti57  1  0.625009  0.375027  0.910168  1
  Ti  Ti58  1  0.125025  0.874962  0.910143  1
  Ti  Ti59  1  0.624994  0.874966  0.910133  1
  Ti  Ti60  1  0.374996  0.124972  0.910168  1
  Ti  Ti61  1  0.875024  0.124966  0.910181  1
  Ti  Ti62  1  0.375010  0.625034  0.910132  1
  Ti  Ti63  1  0.874980  0.625038  0.910142  1
  Ti  Ti64  1  0.386198  0.375397  0.668086  1
  Ti  Ti65  1  0.879039  0.391154  0.646503  1
  Ti  Ti66  1  0.382955  0.890466  0.654855  1
  Ti  Ti67  1  0.895838  0.881049  0.661469  1
  Ti  Ti68  1  0.120960  0.108843  0.646503  1
  Ti  Ti69  1  0.613800  0.124598  0.668086  1
  Ti  Ti70  1  0.104160  0.618946  0.661469  1
  Ti  Ti71  1  0.617044  0.609530  0.654855  1
  Ti  Ti72  1  0.137693  0.363378  0.574715  1
  Ti  Ti73  1  0.629058  0.344865  0.574706  1
  Ti  Ti74  1  0.147642  0.849760  0.571861  1
  Ti  Ti75  1  0.674658  0.912815  0.579564  1
  Ti  Ti76  1  0.370942  0.155134  0.574706  1
  Ti  Ti77  1  0.862306  0.136621  0.574714  1
  Ti  Ti78  1  0.325341  0.587183  0.579564  1
  Ti  Ti79  1  0.852358  0.650239  0.571862  1
  Ti  Ti80  1  0.398159  0.388241  0.480543  1
  Ti  Ti81  1  0.888368  0.374999  0.488269  1
  Ti  Ti82  1  0.340905  0.946410  0.478255  1
  Ti  Ti83  1  0.913233  0.894749  0.491582  1
  Ti  Ti84  1  0.111632  0.125001  0.488269  1
  Ti  Ti85  1  0.601840  0.111759  0.480543  1
  Ti  Ti86  1  0.086766  0.605250  0.491582  1
  Ti  Ti87  1  0.659095  0.553590  0.478255  1
  Ti  Ti88  1  0.125411  0.875028  0.737697  1
  Ti  Ti89  1  0.625065  0.874845  0.737682  1
  Ti  Ti90  1  0.374926  0.625138  0.737680  1
  Ti  Ti91  1  0.874580  0.624954  0.737701  1
  Ti  Ti92  1  0.124794  0.374882  0.737758  1
  Ti  Ti93  1  0.625100  0.374831  0.737768  1
  Ti  Ti94  1  0.374892  0.125146  0.737767  1
  Ti  Ti95  1  0.875197  0.125096  0.737755  1
  Sn  Sn96  1  0.500000  0.750000  0.513161  1
