# generated using pymatgen
data_Ti96Mo
_symmetry_space_group_name_H-M   'P 1'
_cell_length_a   9.51302000
_cell_length_b   9.35086000
_cell_length_c   18.54723000
_cell_angle_alpha   90.00000000
_cell_angle_beta   90.00000000
_cell_angle_gamma   90.00000000
_symmetry_Int_Tables_number   1
_chemical_formula_structural   Ti96Mo
_chemical_formula_sum   'Ti96 Mo1'
_cell_volume   1649.86732743
_cell_formula_units_Z   1
loop_
 _symmetry_equiv_pos_site_id
 _symmetry_equiv_pos_as_xyz
  1  'x, y, z'
loop_
 _atom_site_type_symbol
 _atom_site_label
 _atom_site_symmetry_multiplicity
 _atom_site_fract_x
 _atom_site_fract_y
 _atom_site_fract_z
 _atom_site_occupancy
  Ti  Ti0  1  0.146655  0.370452  0.401403  1
  Ti  Ti1  1  0.665358  0.363056  0.386979  1
  Ti  Ti2  1  0.150064  0.867338  0.402127  1
  Ti  Ti3  1  0.656900  0.857020  0.415073  1
  Ti  Ti4  1  0.162861  0.369775  0.237635  1
  Ti  Ti5  1  0.656074  0.373516  0.235258  1
  Ti  Ti6  1  0.161228  0.873481  0.235420  1
  Ti  Ti7  1  0.662531  0.873938  0.234150  1
  Ti  Ti8  1  0.166666  0.375000  0.077689  1
  Ti  Ti9  1  0.666666  0.375000  0.077689  1
  Ti  Ti10  1  0.166666  0.875000  0.077689  1
  Ti  Ti11  1  0.666666  0.875000  0.077689  1
  Ti  Ti12  1  0.407408  0.389218  0.320049  1
  Ti  Ti13  1  0.914551  0.381979  0.316610  1
  Ti  Ti14  1  0.403278  0.870588  0.317234  1
  Ti  Ti15  1  0.901174  0.875603  0.318530  1
  Ti  Ti16  1  0.416667  0.375000  0.155379  1
  Ti  Ti17  1  0.916667  0.375000  0.155379  1
  Ti  Ti18  1  0.416667  0.875000  0.155379  1
  Ti  Ti19  1  0.916667  0.875000  0.155379  1
  Ti  Ti20  1  0.416667  0.375000  0.000000  1
  Ti  Ti21  1  0.916667  0.375000  0.000000  1
  Ti  Ti22  1  0.416667  0.875000  0.000000  1
  Ti  Ti23  1  0.916667  0.875000  0.000000  1
  Ti  Ti24  1  0.085449  0.118021  0.316609  1
  Ti  Ti25  1  0.592592  0.110782  0.320048  1
  Ti  Ti26  1  0.098826  0.624397  0.318529  1
  Ti  Ti27  1  0.596722  0.629412  0.317233  1
  Ti  Ti28  1  0.083333  0.125000  0.155379  1
  Ti  Ti29  1  0.583333  0.125000  0.155379  1
  Ti  Ti30  1  0.083333  0.625000  0.155379  1
  Ti  Ti31  1  0.583333  0.625000  0.155379  1
  Ti  Ti32  1  0.083333  0.125000  0.000000  1
  Ti  Ti33  1  0.583333  0.125000  0.000000  1
  Ti  Ti34  1  0.083333  0.625000  0.000000  1
  Ti  Ti35  1  0.583333  0.625000  0.000000  1
  Ti  Ti36  1  0.334641  0.136944  0.386979  1
  Ti  Ti37  1  0.853344  0.129548  0.401403  1
  Ti  Ti38  1  0.343099  0.642980  0.415073  1
  Ti  Ti39  1  0.849935  0.632662  0.402127  1
  Ti  Ti40  1  0.343925  0.126484  0.235258  1
  Ti  Ti41  1  0.837138  0.130225  0.237635  1
  Ti  Ti42  1  0.337468  0.626062  0.234150  1
  Ti  Ti43  1  0.838771  0.626519  0.235420  1
  Ti  Ti44  1  0.333333  0.125000  0.077689  1
  Ti  Ti45  1  0.833333  0.125000  0.077689  1
  Ti  Ti46  1  0.333333  0.625000  0.077689  1
  Ti  Ti47  1  0.833333  0.625000  0.077689  1
  Ti  Ti48  1  0.375000  0.375000  0.823738  1
  Ti  Ti49  1  0.875000  0.375000  0.823738  1
  Ti  Ti50  1  0.375000  0.875000  0.823738  1
  Ti  Ti51  1  0.875000  0.875000  0.823738  1
  Ti  Ti52  1  0.125000  0.125000  0.823738  1
  Ti  Ti53  1  0.625000  0.125000  0.823738  1
  Ti  Ti54  1  0.125000  0.625000  0.823738  1
  Ti  Ti55  1  0.625000  0.625000  0.823738  1
  Ti  Ti56  1  0.125000  0.375000  0.910084  1
  Ti  Ti57  1  0.625000  0.375000  0.910084  1
  Ti  Ti58  1  0.125000  0.875000  0.910084  1
  Ti  Ti59  1  0.625000  0.875000  0.910084  1
  Ti  Ti60  1  0.375000  0.125000  0.910084  1
  Ti  Ti61  1  0.875000  0.125000  0.910084  1
  Ti  Ti62  1  0.375000  0.625000  0.910084  1
  Ti  Ti63  1  0.875000  0.625000  0.910084  1
  Ti  Ti64  1  0.377411  0.367563  0.672893  1
  Ti  Ti65  1  0.877198  0.399253  0.647392  1
  Ti  Ti66  1  0.374563  0.884995  0.664306  1
  Ti  Ti67  1  0.910551  0.879804  0.647434  1
  Ti  Ti68  1  0.122802  0.100747  0.647392  1
  Ti  Ti69  1  0.622589  0.132437  0.672893  1
  Ti  Ti70  1  0.089449  0.620196  0.647434  1
  Ti  Ti71  1  0.625437  0.615005  0.664306  1
  Ti  Ti72  1  0.132219  0.350675  0.573879  1
  Ti  Ti73  1  0.626406  0.365026  0.579453  1
  Ti  Ti74  1  0.175773  0.845891  0.558232  1
  Ti  Ti75  1  0.673205  0.932873  0.573080  1
  Ti  Ti76  1  0.373594  0.134974  0.579453  1
  Ti  Ti77  1  0.867781  0.149325  0.573879  1
  Ti  Ti78  1  0.326795  0.567127  0.573080  1
  Ti  Ti79  1  0.824227  0.654109  0.558232  1
  Ti  Ti80  1  0.393029  0.355198  0.477599  1
  Ti  Ti81  1  0.878192  0.387912  0.490875  1
  Ti  Ti82  1  0.402285  -0.077058  0.473007  1
  Ti  Ti83  1  0.917609  0.890982  0.486801  1
  Ti  Ti84  1  0.121808  0.112088  0.490875  1
  Ti  Ti85  1  0.606971  0.144802  0.477599  1
  Ti  Ti86  1  0.082391  0.609018  0.486801  1
  Ti  Ti87  1  0.597715  0.577058  0.473007  1
  Ti  Ti88  1  0.125000  0.875000  0.737395  1
  Ti  Ti89  1  0.625000  0.875000  0.737395  1
  Ti  Ti90  1  0.375000  0.625000  0.737395  1
  Ti  Ti91  1  0.875000  0.625000  0.737395  1
  Ti  Ti92  1  0.125000  0.375000  0.737395  1
  Ti  Ti93  1  0.625000  0.375000  0.737395  1
  Ti  Ti94  1  0.375000  0.125000  0.737395  1
  Ti  Ti95  1  0.875000  0.125000  0.737395  1
  Mo  Mo96  1  0.500000  0.750000  0.565550  1
