# generated using pymatgen
data_Ti96Mo
_symmetry_space_group_name_H-M   'P 1'
_cell_length_a   9.51302000
_cell_length_b   9.35086000
_cell_length_c   18.54723000
_cell_angle_alpha   90.00000000
_cell_angle_beta   90.00000000
_cell_angle_gamma   90.00000000
_symmetry_Int_Tables_number   1
_chemical_formula_structural   Ti96Mo
_chemical_formula_sum   'Ti96 Mo1'
_cell_volume   1649.86732743
_cell_formula_units_Z   1
loop_
 _symmetry_equiv_pos_site_id
 _symmetry_equiv_pos_as_xyz
  1  'x, y, z'
loop_
 _atom_site_type_symbol
 _atom_site_label
 _atom_site_symmetry_multiplicity
 _atom_site_fract_x
 _atom_site_fract_y
 _atom_site_fract_z
 _atom_site_occupancy
  Ti  Ti0  1  0.141711  0.370363  0.407537  1
  Ti  Ti1  1  0.656701  0.351648  0.416668  1
  Ti  Ti2  1  0.159867  0.859253  0.408247  1
  Ti  Ti3  1  0.666667  0.897725  0.403986  1
  Ti  Ti4  1  0.148582  0.369732  0.239318  1
  Ti  Ti5  1  0.664446  0.364802  0.229298  1
  Ti  Ti6  1  0.163604  0.865657  0.237041  1
  Ti  Ti7  1  0.670416  0.889992  0.243828  1
  Ti  Ti8  1  0.166576  0.375056  0.077390  1
  Ti  Ti9  1  0.666778  0.374898  0.077367  1
  Ti  Ti10  1  0.166707  0.875059  0.077574  1
  Ti  Ti11  1  0.666623  0.874919  0.077574  1
  Ti  Ti12  1  0.398930  0.359305  0.320029  1
  Ti  Ti13  1  0.895093  0.375365  0.323870  1
  Ti  Ti14  1  0.380955  0.942976  0.326173  1
  Ti  Ti15  1  0.919527  0.879991  0.321372  1
  Ti  Ti16  1  0.416883  0.374818  0.154890  1
  Ti  Ti17  1  0.916715  0.374730  0.154935  1
  Ti  Ti18  1  0.416487  0.874975  0.155603  1
  Ti  Ti19  1  0.917069  0.875134  0.154978  1
  Ti  Ti20  1  0.416693  0.375041  -0.000166  1
  Ti  Ti21  1  0.916621  0.374982  -0.000200  1
  Ti  Ti22  1  0.416671  0.874964  0.000006  1
  Ti  Ti23  1  0.916670  0.874978  -0.000148  1
  Ti  Ti24  1  0.104907  0.124635  0.323869  1
  Ti  Ti25  1  0.601070  0.140695  0.320027  1
  Ti  Ti26  1  0.080472  0.620011  0.321371  1
  Ti  Ti27  1  0.619046  0.557025  0.326173  1
  Ti  Ti28  1  0.083283  0.125292  0.154931  1
  Ti  Ti29  1  0.583118  0.125207  0.154887  1
  Ti  Ti30  1  0.082929  0.624886  0.154980  1
  Ti  Ti31  1  0.583516  0.625017  0.155603  1
  Ti  Ti32  1  0.083380  0.125022  -0.000202  1
  Ti  Ti33  1  0.583307  0.124970  -0.000166  1
  Ti  Ti34  1  0.083329  0.625024  -0.000146  1
  Ti  Ti35  1  0.583332  0.625026  0.000007  1
  Ti  Ti36  1  0.343298  0.148352  0.416668  1
  Ti  Ti37  1  0.858288  0.129637  0.407537  1
  Ti  Ti38  1  0.333332  0.602275  0.403986  1
  Ti  Ti39  1  0.840132  0.640747  0.408247  1
  Ti  Ti40  1  0.335554  0.135200  0.229297  1
  Ti  Ti41  1  0.851417  0.130271  0.239317  1
  Ti  Ti42  1  0.329582  0.610011  0.243829  1
  Ti  Ti43  1  0.836395  0.634348  0.237041  1
  Ti  Ti44  1  0.333222  0.125116  0.077366  1
  Ti  Ti45  1  0.833423  0.124958  0.077390  1
  Ti  Ti46  1  0.333375  0.625089  0.077574  1
  Ti  Ti47  1  0.833293  0.624949  0.077575  1
  Ti  Ti48  1  0.375041  0.375069  0.823687  1
  Ti  Ti49  1  0.874910  0.375037  0.823703  1
  Ti  Ti50  1  0.375055  0.874951  0.823626  1
  Ti  Ti51  1  0.874903  0.874955  0.823679  1
  Ti  Ti52  1  0.125093  0.124955  0.823703  1
  Ti  Ti53  1  0.624962  0.124932  0.823688  1
  Ti  Ti54  1  0.125099  0.625038  0.823679  1
  Ti  Ti55  1  0.624948  0.625042  0.823626  1
  Ti  Ti56  1  0.124993  0.375036  0.909995  1
  Ti  Ti57  1  0.625003  0.375022  0.910014  1
  Ti  Ti58  1  0.125050  0.874975  0.910036  1
  Ti  Ti59  1  0.624954  0.874947  0.910067  1
  Ti  Ti60  1  0.375002  0.124979  0.910015  1
  Ti  Ti61  1  0.875012  0.124964  0.909994  1
  Ti  Ti62  1  0.375048  0.625038  0.910068  1
  Ti  Ti63  1  0.874955  0.625015  0.910038  1
  Ti  Ti64  1  0.393679  0.389926  0.654315  1
  Ti  Ti65  1  0.901424  0.380322  0.652449  1
  Ti  Ti66  1  0.396939  0.878653  0.653155  1
  Ti  Ti67  1  0.891609  0.884138  0.655763  1
  Ti  Ti68  1  0.098575  0.119674  0.652449  1
  Ti  Ti69  1  0.606319  0.110070  0.654315  1
  Ti  Ti70  1  0.108389  0.615858  0.655763  1
  Ti  Ti71  1  0.603060  0.621344  0.653155  1
  Ti  Ti72  1  0.151345  0.370225  0.569204  1
  Ti  Ti73  1  0.650972  0.362365  0.582228  1
  Ti  Ti74  1  0.146304  0.865321  0.577481  1
  Ti  Ti75  1  0.653590  0.862775  0.566778  1
  Ti  Ti76  1  0.349028  0.137634  0.582228  1
  Ti  Ti77  1  0.848655  0.129774  0.569204  1
  Ti  Ti78  1  0.346409  0.637224  0.566778  1
  Ti  Ti79  1  0.853695  0.634678  0.577481  1
  Ti  Ti80  1  0.405496  0.380187  0.495314  1
  Ti  Ti81  1  0.899013  0.382627  0.491351  1
  Ti  Ti82  1  0.393301  0.898024  0.496794  1
  Ti  Ti83  1  0.911312  0.879116  0.489444  1
  Ti  Ti84  1  0.100987  0.117372  0.491351  1
  Ti  Ti85  1  0.594504  0.119812  0.495314  1
  Ti  Ti86  1  0.088687  0.620884  0.489444  1
  Ti  Ti87  1  0.606699  0.601976  0.496794  1
  Ti  Ti88  1  0.125063  0.875008  0.737490  1
  Ti  Ti89  1  0.624971  0.874971  0.737443  1
  Ti  Ti90  1  0.375024  0.625014  0.737442  1
  Ti  Ti91  1  0.874930  0.624975  0.737492  1
  Ti  Ti92  1  0.124958  0.374989  0.737528  1
  Ti  Ti93  1  0.625017  0.374993  0.737489  1
  Ti  Ti94  1  0.374978  0.124993  0.737490  1
  Ti  Ti95  1  0.875035  0.124996  0.737527  1
  Mo  Mo96  1  0.500000  0.750000  0.337645  1
