# generated using pymatgen
data_Ti96Sn
_symmetry_space_group_name_H-M   'P 1'
_cell_length_a   9.51302000
_cell_length_b   9.35086000
_cell_length_c   18.54723000
_cell_angle_alpha   90.00000000
_cell_angle_beta   90.00000000
_cell_angle_gamma   90.00000000
_symmetry_Int_Tables_number   1
_chemical_formula_structural   Ti96Sn
_chemical_formula_sum   'Ti96 Sn1'
_cell_volume   1649.86732743
_cell_formula_units_Z   1
loop_
 _symmetry_equiv_pos_site_id
 _symmetry_equiv_pos_as_xyz
  1  'x, y, z'
loop_
 _atom_site_type_symbol
 _atom_site_label
 _atom_site_symmetry_multiplicity
 _atom_site_fract_x
 _atom_site_fract_y
 _atom_site_fract_z
 _atom_site_occupancy
  Ti  Ti0  1  0.146269  0.381611  0.401063  1
  Ti  Ti1  1  0.663143  0.346943  0.386239  1
  Ti  Ti2  1  0.137502  0.862901  0.401493  1
  Ti  Ti3  1  0.667047  0.858505  0.410957  1
  Ti  Ti4  1  0.162400  0.370171  0.237313  1
  Ti  Ti5  1  0.653687  0.372371  0.233542  1
  Ti  Ti6  1  0.164077  0.874963  0.234112  1
  Ti  Ti7  1  0.659742  0.871949  0.233402  1
  Ti  Ti8  1  0.166662  0.375018  0.077677  1
  Ti  Ti9  1  0.666674  0.374990  0.077651  1
  Ti  Ti10  1  0.166659  0.875016  0.077680  1
  Ti  Ti11  1  0.666660  0.875006  0.077665  1
  Ti  Ti12  1  0.405126  0.400728  0.321073  1
  Ti  Ti13  1  0.910358  0.381331  0.317033  1
  Ti  Ti14  1  0.397796  0.878818  0.321669  1
  Ti  Ti15  1  0.903883  0.876540  0.313398  1
  Ti  Ti16  1  0.416668  0.374969  0.155267  1
  Ti  Ti17  1  0.916685  0.374957  0.155292  1
  Ti  Ti18  1  0.416662  0.875051  0.155278  1
  Ti  Ti19  1  0.916675  0.874986  0.155298  1
  Ti  Ti20  1  0.416659  0.375017  -0.000014  1
  Ti  Ti21  1  0.916653  0.375007  -0.000007  1
  Ti  Ti22  1  0.416660  0.874999  -0.000031  1
  Ti  Ti23  1  0.916655  0.874994  -0.000019  1
  Ti  Ti24  1  0.089642  0.118669  0.317032  1
  Ti  Ti25  1  0.594874  0.099272  0.321072  1
  Ti  Ti26  1  0.096117  0.623460  0.313397  1
  Ti  Ti27  1  0.602204  0.621182  0.321668  1
  Ti  Ti28  1  0.083314  0.125049  0.155291  1
  Ti  Ti29  1  0.583332  0.125038  0.155267  1
  Ti  Ti30  1  0.083325  0.625021  0.155298  1
  Ti  Ti31  1  0.583338  0.624957  0.155278  1
  Ti  Ti32  1  0.083348  0.124997  -0.000008  1
  Ti  Ti33  1  0.583342  0.124988  -0.000015  1
  Ti  Ti34  1  0.083346  0.625014  -0.000018  1
  Ti  Ti35  1  0.583341  0.625008  -0.000030  1
  Ti  Ti36  1  0.336856  0.153057  0.386239  1
  Ti  Ti37  1  0.853730  0.118389  0.401063  1
  Ti  Ti38  1  0.332952  0.641495  0.410957  1
  Ti  Ti39  1  0.862497  0.637099  0.401493  1
  Ti  Ti40  1  0.346312  0.127630  0.233541  1
  Ti  Ti41  1  0.837599  0.129830  0.237313  1
  Ti  Ti42  1  0.340257  0.628053  0.233402  1
  Ti  Ti43  1  0.835922  0.625039  0.234112  1
  Ti  Ti44  1  0.333326  0.125015  0.077651  1
  Ti  Ti45  1  0.833337  0.124986  0.077676  1
  Ti  Ti46  1  0.333339  0.625000  0.077665  1
  Ti  Ti47  1  0.833340  0.624990  0.077680  1
  Ti  Ti48  1  0.375026  0.375012  0.823884  1
  Ti  Ti49  1  0.875000  0.374942  0.823874  1
  Ti  Ti50  1  0.375041  0.875051  0.823798  1
  Ti  Ti51  1  0.875040  0.875012  0.823815  1
  Ti  Ti52  1  0.125006  0.125051  0.823872  1
  Ti  Ti53  1  0.624980  0.124990  0.823883  1
  Ti  Ti54  1  0.124962  0.624988  0.823816  1
  Ti  Ti55  1  0.624962  0.624943  0.823800  1
  Ti  Ti56  1  0.124980  0.375030  0.910122  1
  Ti  Ti57  1  0.624994  0.375008  0.910124  1
  Ti  Ti58  1  0.125007  0.875002  0.910086  1
  Ti  Ti59  1  0.624976  0.875002  0.910075  1
  Ti  Ti60  1  0.375008  0.124993  0.910124  1
  Ti  Ti61  1  0.875025  0.124970  0.910121  1
  Ti  Ti62  1  0.375027  0.625000  0.910075  1
  Ti  Ti63  1  0.874998  0.624999  0.910087  1
  Ti  Ti64  1  0.382256  0.370964  0.670812  1
  Ti  Ti65  1  0.874068  0.398645  0.647062  1
  Ti  Ti66  1  0.380500  0.888189  0.660817  1
  Ti  Ti67  1  0.902021  0.878954  0.655374  1
  Ti  Ti68  1  0.125931  0.101353  0.647061  1
  Ti  Ti69  1  0.617742  0.129033  0.670812  1
  Ti  Ti70  1  0.097977  0.621042  0.655375  1
  Ti  Ti71  1  0.619499  0.611807  0.660818  1
  Ti  Ti72  1  0.130181  0.355454  0.574965  1
  Ti  Ti73  1  0.626086  0.350895  0.577454  1
  Ti  Ti74  1  0.166258  0.847514  0.564965  1
  Ti  Ti75  1  0.679525  0.931706  0.577861  1
  Ti  Ti76  1  0.373914  0.149105  0.577453  1
  Ti  Ti77  1  0.869819  0.144546  0.574965  1
  Ti  Ti78  1  0.320475  0.568293  0.577861  1
  Ti  Ti79  1  0.833742  0.652485  0.564965  1
  Ti  Ti80  1  0.391481  0.369624  0.478702  1
  Ti  Ti81  1  0.880614  0.380541  0.488381  1
  Ti  Ti82  1  0.369002  0.950273  0.472387  1
  Ti  Ti83  1  0.916932  0.893499  0.492413  1
  Ti  Ti84  1  0.119386  0.119459  0.488381  1
  Ti  Ti85  1  0.608519  0.130376  0.478702  1
  Ti  Ti86  1  0.083068  0.606500  0.492413  1
  Ti  Ti87  1  0.630998  0.549727  0.472388  1
  Ti  Ti88  1  0.125295  0.875227  0.737597  1
  Ti  Ti89  1  0.624990  0.875098  0.737615  1
  Ti  Ti90  1  0.375002  0.624888  0.737616  1
  Ti  Ti91  1  0.874700  0.624760  0.737604  1
  Ti  Ti92  1  0.124823  0.374921  0.737612  1
  Ti  Ti93  1  0.624998  0.374822  0.737674  1
  Ti  Ti94  1  0.374994  0.125161  0.737671  1
  Ti  Ti95  1  0.875171  0.125065  0.737609  1
  Sn  Sn96  1  0.500000  0.750000  0.531436  1
