# generated using pymatgen
data_Ti96Al
_symmetry_space_group_name_H-M   'P 1'
_cell_length_a   9.51302000
_cell_length_b   9.35086000
_cell_length_c   18.54723000
_cell_angle_alpha   90.00000000
_cell_angle_beta   90.00000000
_cell_angle_gamma   90.00000000
_symmetry_Int_Tables_number   1
_chemical_formula_structural   Ti96Al
_chemical_formula_sum   'Ti96 Al1'
_cell_volume   1649.86732743
_cell_formula_units_Z   1
loop_
 _symmetry_equiv_pos_site_id
 _symmetry_equiv_pos_as_xyz
  1  'x, y, z'
loop_
 _atom_site_type_symbol
 _atom_site_label
 _atom_site_symmetry_multiplicity
 _atom_site_fract_x
 _atom_site_fract_y
 _atom_site_fract_z
 _atom_site_occupancy
  Ti  Ti0  1  0.140577  0.382243  0.400301  1
  Ti  Ti1  1  0.652101  0.366715  0.394300  1
  Ti  Ti2  1  0.167960  0.885118  0.399688  1
  Ti  Ti3  1  0.646922  0.913509  0.399797  1
  Ti  Ti4  1  0.164234  0.376950  0.235535  1
  Ti  Ti5  1  0.659473  0.381395  0.235347  1
  Ti  Ti6  1  0.157462  0.875323  0.236040  1
  Ti  Ti7  1  0.660159  0.874400  0.235497  1
  Ti  Ti8  1  0.166662  0.375001  0.077683  1
  Ti  Ti9  1  0.666667  0.375007  0.077689  1
  Ti  Ti10  1  0.166674  0.875000  0.077685  1
  Ti  Ti11  1  0.666666  0.874997  0.077693  1
  Ti  Ti12  1  0.405461  0.376480  0.319533  1
  Ti  Ti13  1  0.912009  0.367900  0.308825  1
  Ti  Ti14  1  0.410629  0.872551  0.315709  1
  Ti  Ti15  1  0.901748  0.864103  0.328225  1
  Ti  Ti16  1  0.416667  0.375014  0.155337  1
  Ti  Ti17  1  0.916662  0.375029  0.155350  1
  Ti  Ti18  1  0.416685  0.874987  0.155356  1
  Ti  Ti19  1  0.916699  0.875025  0.155364  1
  Ti  Ti20  1  0.416677  0.375014  -0.000002  1
  Ti  Ti21  1  0.916657  0.375012  0.000003  1
  Ti  Ti22  1  0.416680  0.874995  -0.000005  1
  Ti  Ti23  1  0.916659  0.874996  -0.000001  1
  Ti  Ti24  1  0.094539  0.123520  0.319532  1
  Ti  Ti25  1  0.587991  0.132101  0.308824  1
  Ti  Ti26  1  0.089371  0.627449  0.315708  1
  Ti  Ti27  1  0.598252  0.635897  0.328225  1
  Ti  Ti28  1  0.083333  0.124989  0.155338  1
  Ti  Ti29  1  0.583337  0.124973  0.155350  1
  Ti  Ti30  1  0.083315  0.625015  0.155356  1
  Ti  Ti31  1  0.583301  0.624978  0.155364  1
  Ti  Ti32  1  0.083324  0.124990  -0.000002  1
  Ti  Ti33  1  0.583343  0.124991  0.000003  1
  Ti  Ti34  1  0.083320  0.625009  -0.000005  1
  Ti  Ti35  1  0.583342  0.625008  -0.000001  1
  Ti  Ti36  1  0.359422  0.117757  0.400301  1
  Ti  Ti37  1  0.847898  0.133285  0.394300  1
  Ti  Ti38  1  0.332039  0.614882  0.399688  1
  Ti  Ti39  1  0.853077  0.586491  0.399797  1
  Ti  Ti40  1  0.335765  0.123050  0.235535  1
  Ti  Ti41  1  0.840526  0.118605  0.235347  1
  Ti  Ti42  1  0.342537  0.624678  0.236040  1
  Ti  Ti43  1  0.839840  0.625600  0.235497  1
  Ti  Ti44  1  0.333337  0.125002  0.077683  1
  Ti  Ti45  1  0.833332  0.124996  0.077689  1
  Ti  Ti46  1  0.333324  0.625003  0.077685  1
  Ti  Ti47  1  0.833333  0.625006  0.077693  1
  Ti  Ti48  1  0.374997  0.375007  0.823822  1
  Ti  Ti49  1  0.875001  0.374970  0.823791  1
  Ti  Ti50  1  0.375021  0.875019  0.823810  1
  Ti  Ti51  1  0.874955  0.874970  0.823769  1
  Ti  Ti52  1  0.125004  0.124993  0.823822  1
  Ti  Ti53  1  0.625001  0.125029  0.823791  1
  Ti  Ti54  1  0.124981  0.624981  0.823810  1
  Ti  Ti55  1  0.625048  0.625030  0.823769  1
  Ti  Ti56  1  0.124990  0.374991  0.910129  1
  Ti  Ti57  1  0.625021  0.375008  0.910120  1
  Ti  Ti58  1  0.124991  0.874995  0.910124  1
  Ti  Ti59  1  0.625017  0.874995  0.910111  1
  Ti  Ti60  1  0.375012  0.125010  0.910129  1
  Ti  Ti61  1  0.874981  0.124992  0.910119  1
  Ti  Ti62  1  0.375012  0.625005  0.910124  1
  Ti  Ti63  1  0.874985  0.625006  0.910110  1
  Ti  Ti64  1  0.390472  0.371304  0.644428  1
  Ti  Ti65  1  0.885880  0.357010  0.665845  1
  Ti  Ti66  1  0.379174  0.861867  0.666934  1
  Ti  Ti67  1  0.892269  0.863853  0.645857  1
  Ti  Ti68  1  0.109527  0.128695  0.644428  1
  Ti  Ti69  1  0.614119  0.142988  0.665845  1
  Ti  Ti70  1  0.120826  0.638132  0.666934  1
  Ti  Ti71  1  0.607730  0.636146  0.645857  1
  Ti  Ti72  1  0.135013  0.393368  0.574958  1
  Ti  Ti73  1  0.654074  0.383232  0.576309  1
  Ti  Ti74  1  0.158075  0.877585  0.569978  1
  Ti  Ti75  1  0.607384  0.919361  0.582782  1
  Ti  Ti76  1  0.364987  0.106632  0.574958  1
  Ti  Ti77  1  0.845925  0.116768  0.576309  1
  Ti  Ti78  1  0.341925  0.622415  0.569978  1
  Ti  Ti79  1  0.892616  0.580638  0.582782  1
  Ti  Ti80  1  0.376100  0.359607  0.487949  1
  Ti  Ti81  1  0.900833  0.348468  0.490305  1
  Ti  Ti82  1  0.413907  0.852081  0.481834  1
  Ti  Ti83  1  0.935834  0.921756  0.479825  1
  Ti  Ti84  1  0.123900  0.140393  0.487949  1
  Ti  Ti85  1  0.599167  0.151532  0.490305  1
  Ti  Ti86  1  0.086093  0.647919  0.481834  1
  Ti  Ti87  1  0.564166  0.578244  0.479825  1
  Ti  Ti88  1  0.125062  0.875031  0.737559  1
  Ti  Ti89  1  0.625009  0.875073  0.737547  1
  Ti  Ti90  1  0.374934  0.624961  0.737560  1
  Ti  Ti91  1  0.874987  0.624920  0.737548  1
  Ti  Ti92  1  0.125102  0.374896  0.737561  1
  Ti  Ti93  1  0.624968  0.375209  0.737566  1
  Ti  Ti94  1  0.374894  0.125097  0.737560  1
  Ti  Ti95  1  0.875028  0.124781  0.737568  1
  Al  Al96  1  0.750000  0.750000  0.508213  1
