# generated using pymatgen
data_Ti96Nb
_symmetry_space_group_name_H-M   'P 1'
_cell_length_a   9.51302000
_cell_length_b   9.35086000
_cell_length_c   18.54723000
_cell_angle_alpha   90.00000000
_cell_angle_beta   90.00000000
_cell_angle_gamma   90.00000000
_symmetry_Int_Tables_number   1
_chemical_formula_structural   Ti96Nb
_chemical_formula_sum   'Ti96 Nb1'
_cell_volume   1649.86732743
_cell_formula_units_Z   1
loop_
 _symmetry_equiv_pos_site_id
 _symmetry_equiv_pos_as_xyz
  1  'x, y, z'
loop_
 _atom_site_type_symbol
 _atom_site_label
 _atom_site_symmetry_multiplicity
 _atom_site_fract_x
 _atom_site_fract_y
 _atom_site_fract_z
 _atom_site_occupancy
  Ti  Ti0  1  0.145128  0.377316  0.399309  1
  Ti  Ti1  1  0.650883  0.367371  0.395214  1
  Ti  Ti2  1  0.166723  0.884025  0.398545  1
  Ti  Ti3  1  0.649222  0.912037  0.398110  1
  Ti  Ti4  1  0.164079  0.377347  0.235972  1
  Ti  Ti5  1  0.660628  0.380830  0.235115  1
  Ti  Ti6  1  0.157654  0.875278  0.235541  1
  Ti  Ti7  1  0.659962  0.873907  0.234183  1
  Ti  Ti8  1  0.166661  0.374998  0.077678  1
  Ti  Ti9  1  0.666667  0.375001  0.077687  1
  Ti  Ti10  1  0.166674  0.875004  0.077683  1
  Ti  Ti11  1  0.666672  0.875001  0.077695  1
  Ti  Ti12  1  0.408199  0.376549  0.317862  1
  Ti  Ti13  1  0.912038  0.368753  0.309736  1
  Ti  Ti14  1  0.408310  0.872181  0.316351  1
  Ti  Ti15  1  0.901896  0.862187  0.326036  1
  Ti  Ti16  1  0.416662  0.375008  0.155329  1
  Ti  Ti17  1  0.916660  0.375016  0.155339  1
  Ti  Ti18  1  0.416693  0.874991  0.155342  1
  Ti  Ti19  1  0.916696  0.875037  0.155352  1
  Ti  Ti20  1  0.416679  0.375016  -0.000011  1
  Ti  Ti21  1  0.916655  0.375015  -0.000007  1
  Ti  Ti22  1  0.416685  0.874995  -0.000010  1
  Ti  Ti23  1  0.916654  0.874999  -0.000007  1
  Ti  Ti24  1  0.091801  0.123451  0.317861  1
  Ti  Ti25  1  0.587962  0.131248  0.309735  1
  Ti  Ti26  1  0.091690  0.627820  0.316350  1
  Ti  Ti27  1  0.598104  0.637813  0.326035  1
  Ti  Ti28  1  0.083339  0.124996  0.155329  1
  Ti  Ti29  1  0.583339  0.124987  0.155340  1
  Ti  Ti30  1  0.083307  0.625012  0.155342  1
  Ti  Ti31  1  0.583304  0.624965  0.155353  1
  Ti  Ti32  1  0.083322  0.124989  -0.000011  1
  Ti  Ti33  1  0.583345  0.124990  -0.000007  1
  Ti  Ti34  1  0.083315  0.625009  -0.000010  1
  Ti  Ti35  1  0.583347  0.625005  -0.000007  1
  Ti  Ti36  1  0.354871  0.122684  0.399309  1
  Ti  Ti37  1  0.849116  0.132629  0.395214  1
  Ti  Ti38  1  0.333276  0.615975  0.398545  1
  Ti  Ti39  1  0.850777  0.587963  0.398110  1
  Ti  Ti40  1  0.335920  0.122654  0.235972  1
  Ti  Ti41  1  0.839371  0.119171  0.235115  1
  Ti  Ti42  1  0.342345  0.624722  0.235541  1
  Ti  Ti43  1  0.840037  0.626093  0.234183  1
  Ti  Ti44  1  0.333338  0.125005  0.077678  1
  Ti  Ti45  1  0.833332  0.125002  0.077687  1
  Ti  Ti46  1  0.333325  0.624999  0.077683  1
  Ti  Ti47  1  0.833327  0.625002  0.077695  1
  Ti  Ti48  1  0.374981  0.375010  0.823805  1
  Ti  Ti49  1  0.875009  0.374977  0.823790  1
  Ti  Ti50  1  0.375020  0.875012  0.823819  1
  Ti  Ti51  1  0.874954  0.874968  0.823786  1
  Ti  Ti52  1  0.125020  0.124989  0.823805  1
  Ti  Ti53  1  0.624993  0.125023  0.823790  1
  Ti  Ti54  1  0.124981  0.624987  0.823819  1
  Ti  Ti55  1  0.625049  0.625031  0.823786  1
  Ti  Ti56  1  0.124993  0.374988  0.910118  1
  Ti  Ti57  1  0.625019  0.375012  0.910113  1
  Ti  Ti58  1  0.124998  0.874999  0.910125  1
  Ti  Ti59  1  0.625018  0.874992  0.910116  1
  Ti  Ti60  1  0.375010  0.125014  0.910117  1
  Ti  Ti61  1  0.874982  0.124989  0.910113  1
  Ti  Ti62  1  0.375005  0.625000  0.910125  1
  Ti  Ti63  1  0.874984  0.625008  0.910114  1
  Ti  Ti64  1  0.392742  0.372249  0.645416  1
  Ti  Ti65  1  0.887198  0.358475  0.664207  1
  Ti  Ti66  1  0.378995  0.863338  0.665983  1
  Ti  Ti67  1  0.893053  0.864510  0.648614  1
  Ti  Ti68  1  0.107257  0.127750  0.645416  1
  Ti  Ti69  1  0.612802  0.141522  0.664206  1
  Ti  Ti70  1  0.121005  0.636660  0.665982  1
  Ti  Ti71  1  0.606946  0.635489  0.648614  1
  Ti  Ti72  1  0.138630  0.390278  0.574825  1
  Ti  Ti73  1  0.654604  0.381225  0.575524  1
  Ti  Ti74  1  0.157578  0.875834  0.570169  1
  Ti  Ti75  1  0.609254  0.914782  0.581817  1
  Ti  Ti76  1  0.361370  0.109721  0.574824  1
  Ti  Ti77  1  0.845396  0.118774  0.575525  1
  Ti  Ti78  1  0.342422  0.624166  0.570169  1
  Ti  Ti79  1  0.890746  0.585217  0.581817  1
  Ti  Ti80  1  0.379902  0.360770  0.488443  1
  Ti  Ti81  1  0.900814  0.350884  0.489577  1
  Ti  Ti82  1  0.408132  0.856035  0.480487  1
  Ti  Ti83  1  -0.063939  -0.082791  0.481252  1
  Ti  Ti84  1  0.120098  0.139230  0.488443  1
  Ti  Ti85  1  0.599186  0.149116  0.489577  1
  Ti  Ti86  1  0.091868  0.643965  0.480487  1
  Ti  Ti87  1  0.563939  0.582791  0.481252  1
  Ti  Ti88  1  0.125064  0.875077  0.737572  1
  Ti  Ti89  1  0.625053  0.875048  0.737566  1
  Ti  Ti90  1  0.374931  0.624914  0.737574  1
  Ti  Ti91  1  0.874943  0.624942  0.737566  1
  Ti  Ti92  1  0.125091  0.374872  0.737523  1
  Ti  Ti93  1  0.624985  0.375275  0.737556  1
  Ti  Ti94  1  0.374907  0.125123  0.737522  1
  Ti  Ti95  1  0.875011  0.124715  0.737560  1
  Nb  Nb96  1  0.750000  0.750000  0.506338  1
