# generated using pymatgen
data_Ti96Mo
_symmetry_space_group_name_H-M   'P 1'
_cell_length_a   9.51302000
_cell_length_b   9.35086000
_cell_length_c   18.54723000
_cell_angle_alpha   90.00000000
_cell_angle_beta   90.00000000
_cell_angle_gamma   90.00000000
_symmetry_Int_Tables_number   1
_chemical_formula_structural   Ti96Mo
_chemical_formula_sum   'Ti96 Mo1'
_cell_volume   1649.86732743
_cell_formula_units_Z   1
loop_
 _symmetry_equiv_pos_site_id
 _symmetry_equiv_pos_as_xyz
  1  'x, y, z'
loop_
 _atom_site_type_symbol
 _atom_site_label
 _atom_site_symmetry_multiplicity
 _atom_site_fract_x
 _atom_site_fract_y
 _atom_site_fract_z
 _atom_site_occupancy
  Ti  Ti0  1  0.139637  0.367250  0.406182  1
  Ti  Ti1  1  0.647130  0.342870  0.406481  1
  Ti  Ti2  1  0.149045  0.854313  0.396709  1
  Ti  Ti3  1  0.675687  0.898713  0.398278  1
  Ti  Ti4  1  0.159838  0.375790  0.235981  1
  Ti  Ti5  1  0.663658  0.371152  0.231055  1
  Ti  Ti6  1  0.161449  0.872879  0.234460  1
  Ti  Ti7  1  0.654231  0.864412  0.242341  1
  Ti  Ti8  1  0.166672  0.375009  0.077615  1
  Ti  Ti9  1  0.666666  0.374990  0.077618  1
  Ti  Ti10  1  0.166709  0.874994  0.077649  1
  Ti  Ti11  1  0.666674  0.875011  0.077653  1
  Ti  Ti12  1  0.404043  0.372848  0.313167  1
  Ti  Ti13  1  0.896739  0.374828  0.319450  1
  Ti  Ti14  1  0.400722  0.906229  0.322775  1
  Ti  Ti15  1  0.915658  0.883309  0.314247  1
  Ti  Ti16  1  0.416669  0.374986  0.155271  1
  Ti  Ti17  1  0.916625  0.374958  0.155267  1
  Ti  Ti18  1  0.416697  0.875045  0.155348  1
  Ti  Ti19  1  0.916771  0.874960  0.155268  1
  Ti  Ti20  1  0.416668  0.375005  -0.000020  1
  Ti  Ti21  1  0.916656  0.375001  -0.000024  1
  Ti  Ti22  1  0.416674  0.874992  0.000007  1
  Ti  Ti23  1  0.916676  0.874986  -0.000016  1
  Ti  Ti24  1  0.103261  0.125173  0.319449  1
  Ti  Ti25  1  0.595957  0.127152  0.313166  1
  Ti  Ti26  1  0.084342  0.616692  0.314246  1
  Ti  Ti27  1  0.599278  0.593771  0.322774  1
  Ti  Ti28  1  0.083375  0.125047  0.155267  1
  Ti  Ti29  1  0.583330  0.125020  0.155271  1
  Ti  Ti30  1  0.083229  0.625045  0.155268  1
  Ti  Ti31  1  0.583304  0.624959  0.155349  1
  Ti  Ti32  1  0.083344  0.125001  -0.000024  1
  Ti  Ti33  1  0.583332  0.124998  -0.000020  1
  Ti  Ti34  1  0.083324  0.625016  -0.000016  1
  Ti  Ti35  1  0.583326  0.625009  0.000007  1
  Ti  Ti36  1  0.352869  0.157130  0.406481  1
  Ti  Ti37  1  0.860362  0.132750  0.406182  1
  Ti  Ti38  1  0.324312  0.601287  0.398278  1
  Ti  Ti39  1  0.850954  0.645687  0.396709  1
  Ti  Ti40  1  0.336341  0.128849  0.231055  1
  Ti  Ti41  1  0.840161  0.124211  0.235981  1
  Ti  Ti42  1  0.345768  0.635588  0.242341  1
  Ti  Ti43  1  0.838550  0.627122  0.234460  1
  Ti  Ti44  1  0.333333  0.125014  0.077618  1
  Ti  Ti45  1  0.833327  0.124996  0.077616  1
  Ti  Ti46  1  0.333325  0.624993  0.077653  1
  Ti  Ti47  1  0.833290  0.625010  0.077648  1
  Ti  Ti48  1  0.375014  0.375033  0.823806  1
  Ti  Ti49  1  0.874988  0.374990  0.823817  1
  Ti  Ti50  1  0.375003  0.874976  0.823804  1
  Ti  Ti51  1  0.874998  0.874950  0.823789  1
  Ti  Ti52  1  0.125013  0.125008  0.823818  1
  Ti  Ti53  1  0.624987  0.124964  0.823806  1
  Ti  Ti54  1  0.125003  0.625047  0.823789  1
  Ti  Ti55  1  0.625000  0.625021  0.823804  1
  Ti  Ti56  1  0.125000  0.375018  0.910098  1
  Ti  Ti57  1  0.624999  0.375007  0.910101  1
  Ti  Ti58  1  0.124999  0.874980  0.910099  1
  Ti  Ti59  1  0.624995  0.874979  0.910096  1
  Ti  Ti60  1  0.375002  0.124991  0.910101  1
  Ti  Ti61  1  0.875002  0.124981  0.910098  1
  Ti  Ti62  1  0.375005  0.625018  0.910096  1
  Ti  Ti63  1  0.875001  0.625017  0.910099  1
  Ti  Ti64  1  0.391635  0.391414  0.656486  1
  Ti  Ti65  1  0.897270  0.375251  0.648530  1
  Ti  Ti66  1  0.393307  0.886979  0.648225  1
  Ti  Ti67  1  0.882544  0.885914  0.664789  1
  Ti  Ti68  1  0.102729  0.124748  0.648530  1
  Ti  Ti69  1  0.608364  0.108585  0.656486  1
  Ti  Ti70  1  0.117456  0.614085  0.664789  1
  Ti  Ti71  1  0.606693  0.613020  0.648225  1
  Ti  Ti72  1  0.149535  0.376827  0.566301  1
  Ti  Ti73  1  0.645637  0.345036  0.578209  1
  Ti  Ti74  1  0.128268  0.858215  0.584209  1
  Ti  Ti75  1  0.654488  0.858617  0.569574  1
  Ti  Ti76  1  0.354363  0.154964  0.578208  1
  Ti  Ti77  1  0.850465  0.123172  0.566301  1
  Ti  Ti78  1  0.345512  0.641383  0.569574  1
  Ti  Ti79  1  0.871731  0.641785  0.584209  1
  Ti  Ti80  1  0.410010  0.395793  0.492139  1
  Ti  Ti81  1  0.895150  0.379727  0.489360  1
  Ti  Ti82  1  0.345580  0.921792  0.494531  1
  Ti  Ti83  1  0.912751  0.878641  0.486604  1
  Ti  Ti84  1  0.104850  0.120273  0.489360  1
  Ti  Ti85  1  0.589990  0.104207  0.492139  1
  Ti  Ti86  1  0.087249  0.621359  0.486604  1
  Ti  Ti87  1  0.654420  0.578208  0.494531  1
  Ti  Ti88  1  0.124946  0.874928  0.737520  1
  Ti  Ti89  1  0.625010  0.874859  0.737471  1
  Ti  Ti90  1  0.374988  0.625137  0.737470  1
  Ti  Ti91  1  0.875051  0.625066  0.737518  1
  Ti  Ti92  1  0.124974  0.375021  0.737525  1
  Ti  Ti93  1  0.624985  0.374905  0.737529  1
  Ti  Ti94  1  0.375011  0.125087  0.737528  1
  Ti  Ti95  1  0.875024  0.124972  0.737526  1
  Mo  Mo96  1  0.500000  0.750000  0.445967  1
