# generated using pymatgen
data_Ti96Nb
_symmetry_space_group_name_H-M   'P 1'
_cell_length_a   9.51302000
_cell_length_b   9.35086000
_cell_length_c   18.54723000
_cell_angle_alpha   90.00000000
_cell_angle_beta   90.00000000
_cell_angle_gamma   90.00000000
_symmetry_Int_Tables_number   1
_chemical_formula_structural   Ti96Nb
_chemical_formula_sum   'Ti96 Nb1'
_cell_volume   1649.86732743
_cell_formula_units_Z   1
loop_
 _symmetry_equiv_pos_site_id
 _symmetry_equiv_pos_as_xyz
  1  'x, y, z'
loop_
 _atom_site_type_symbol
 _atom_site_label
 _atom_site_symmetry_multiplicity
 _atom_site_fract_x
 _atom_site_fract_y
 _atom_site_fract_z
 _atom_site_occupancy
  Ti  Ti0  1  0.142222  0.377113  0.404776  1
  Ti  Ti1  1  0.648780  0.360586  0.403497  1
  Ti  Ti2  1  0.168612  0.883608  0.401588  1
  Ti  Ti3  1  0.626328  0.943788  0.407786  1
  Ti  Ti4  1  0.160918  0.377826  0.235494  1
  Ti  Ti5  1  0.659769  0.376515  0.232784  1
  Ti  Ti6  1  0.162461  0.876039  0.236228  1
  Ti  Ti7  1  0.655553  0.883380  0.233322  1
  Ti  Ti8  1  0.166635  0.374987  0.077464  1
  Ti  Ti9  1  0.666692  0.375021  0.077497  1
  Ti  Ti10  1  0.166690  0.874985  0.077507  1
  Ti  Ti11  1  0.666671  0.874957  0.077683  1
  Ti  Ti12  1  0.395741  0.366744  0.320276  1
  Ti  Ti13  1  0.908526  0.361585  0.311913  1
  Ti  Ti14  1  0.411877  0.864255  0.319379  1
  Ti  Ti15  1  0.921325  0.894858  0.323781  1
  Ti  Ti16  1  0.416507  0.375038  0.154993  1
  Ti  Ti17  1  0.916803  0.374879  0.155000  1
  Ti  Ti18  1  0.416711  0.875037  0.155181  1
  Ti  Ti19  1  0.916641  0.874842  0.155169  1
  Ti  Ti20  1  0.416659  0.375017  -0.000102  1
  Ti  Ti21  1  0.916634  0.375007  -0.000077  1
  Ti  Ti22  1  0.416725  0.874990  -0.000038  1
  Ti  Ti23  1  0.916610  0.874963  -0.000022  1
  Ti  Ti24  1  0.104259  0.133257  0.320275  1
  Ti  Ti25  1  0.591474  0.138416  0.311912  1
  Ti  Ti26  1  0.088123  0.635746  0.319378  1
  Ti  Ti27  1  0.578675  0.605144  0.323781  1
  Ti  Ti28  1  0.083499  0.124987  0.154992  1
  Ti  Ti29  1  0.583192  0.125145  0.154998  1
  Ti  Ti30  1  0.083292  0.624979  0.155181  1
  Ti  Ti31  1  0.583356  0.625176  0.155168  1
  Ti  Ti32  1  0.083347  0.124993  -0.000102  1
  Ti  Ti33  1  0.583362  0.125001  -0.000075  1
  Ti  Ti34  1  0.083281  0.625012  -0.000038  1
  Ti  Ti35  1  0.583388  0.625041  -0.000022  1
  Ti  Ti36  1  0.357777  0.122887  0.404776  1
  Ti  Ti37  1  0.851219  0.139414  0.403497  1
  Ti  Ti38  1  0.331387  0.616392  0.401589  1
  Ti  Ti39  1  0.873671  0.556212  0.407786  1
  Ti  Ti40  1  0.339082  0.122178  0.235494  1
  Ti  Ti41  1  0.840230  0.123490  0.232784  1
  Ti  Ti42  1  0.337538  0.623966  0.236228  1
  Ti  Ti43  1  0.844446  0.616625  0.233322  1
  Ti  Ti44  1  0.333364  0.125030  0.077463  1
  Ti  Ti45  1  0.833308  0.124995  0.077497  1
  Ti  Ti46  1  0.333309  0.625032  0.077507  1
  Ti  Ti47  1  0.833329  0.625053  0.077683  1
  Ti  Ti48  1  0.374965  0.374993  0.823903  1
  Ti  Ti49  1  0.875012  0.374960  0.823860  1
  Ti  Ti50  1  0.375063  0.874996  0.823891  1
  Ti  Ti51  1  0.874970  0.874953  0.823808  1
  Ti  Ti52  1  0.125041  0.124998  0.823902  1
  Ti  Ti53  1  0.624995  0.125034  0.823860  1
  Ti  Ti54  1  0.124942  0.624990  0.823892  1
  Ti  Ti55  1  0.625037  0.625039  0.823810  1
  Ti  Ti56  1  0.124895  0.375051  0.910078  1
  Ti  Ti57  1  0.625060  0.375084  0.910059  1
  Ti  Ti58  1  0.124869  0.874942  0.910075  1
  Ti  Ti59  1  0.625076  0.874939  0.910041  1
  Ti  Ti60  1  0.375111  0.124947  0.910079  1
  Ti  Ti61  1  0.874945  0.124913  0.910059  1
  Ti  Ti62  1  0.375136  0.625048  0.910075  1
  Ti  Ti63  1  0.874930  0.625059  0.910040  1
  Ti  Ti64  1  0.394635  0.366220  0.647677  1
  Ti  Ti65  1  0.891779  0.364325  0.662089  1
  Ti  Ti66  1  0.383419  0.863826  0.663764  1
  Ti  Ti67  1  0.889876  0.864525  0.656621  1
  Ti  Ti68  1  0.105363  0.133775  0.647676  1
  Ti  Ti69  1  0.608218  0.135669  0.662089  1
  Ti  Ti70  1  0.116578  0.636166  0.663764  1
  Ti  Ti71  1  0.610122  0.635468  0.656621  1
  Ti  Ti72  1  0.145926  0.392726  0.574197  1
  Ti  Ti73  1  0.653537  0.387558  0.578171  1
  Ti  Ti74  1  0.148001  0.879010  0.574844  1
  Ti  Ti75  1  0.629147  0.893428  0.580789  1
  Ti  Ti76  1  0.354073  0.107271  0.574197  1
  Ti  Ti77  1  0.846463  0.112440  0.578171  1
  Ti  Ti78  1  0.351999  0.620988  0.574844  1
  Ti  Ti79  1  0.870852  0.606570  0.580789  1
  Ti  Ti80  1  0.387312  0.365834  0.490843  1
  Ti  Ti81  1  0.904763  0.349306  0.499098  1
  Ti  Ti82  1  0.400212  0.854732  0.487545  1
  Ti  Ti83  1  0.921019  0.897551  0.483611  1
  Ti  Ti84  1  0.112688  0.134166  0.490843  1
  Ti  Ti85  1  0.595237  0.150693  0.499098  1
  Ti  Ti86  1  0.099787  0.645267  0.487545  1
  Ti  Ti87  1  0.578981  0.602449  0.483611  1
  Ti  Ti88  1  0.125147  0.874962  0.737745  1
  Ti  Ti89  1  0.624988  0.875141  0.737584  1
  Ti  Ti90  1  0.374840  0.625007  0.737746  1
  Ti  Ti91  1  0.875005  0.624839  0.737587  1
  Ti  Ti92  1  0.125053  0.374912  0.737688  1
  Ti  Ti93  1  0.624960  0.374944  0.737706  1
  Ti  Ti94  1  0.374938  0.125065  0.737687  1
  Ti  Ti95  1  0.875030  0.125030  0.737706  1
  Nb  Nb96  1  0.750000  0.750000  0.413873  1
