# generated using pymatgen
data_Ti96Nb
_symmetry_space_group_name_H-M   'P 1'
_cell_length_a   9.51302000
_cell_length_b   9.35086000
_cell_length_c   18.54723000
_cell_angle_alpha   90.00000000
_cell_angle_beta   90.00000000
_cell_angle_gamma   90.00000000
_symmetry_Int_Tables_number   1
_chemical_formula_structural   Ti96Nb
_chemical_formula_sum   'Ti96 Nb1'
_cell_volume   1649.86732743
_cell_formula_units_Z   1
loop_
 _symmetry_equiv_pos_site_id
 _symmetry_equiv_pos_as_xyz
  1  'x, y, z'
loop_
 _atom_site_type_symbol
 _atom_site_label
 _atom_site_symmetry_multiplicity
 _atom_site_fract_x
 _atom_site_fract_y
 _atom_site_fract_z
 _atom_site_occupancy
  Ti  Ti0  1  0.143493  0.370501  0.406257  1
  Ti  Ti1  1  0.645400  0.340635  0.405743  1
  Ti  Ti2  1  0.137933  0.855664  0.393727  1
  Ti  Ti3  1  0.677137  0.885640  0.393689  1
  Ti  Ti4  1  0.160840  0.373055  0.235002  1
  Ti  Ti5  1  0.661774  0.373498  0.232865  1
  Ti  Ti6  1  0.163290  0.874016  0.234823  1
  Ti  Ti7  1  0.654770  0.867958  0.238592  1
  Ti  Ti8  1  0.166661  0.375004  0.077672  1
  Ti  Ti9  1  0.666660  0.374993  0.077673  1
  Ti  Ti10  1  0.166681  0.875013  0.077688  1
  Ti  Ti11  1  0.666670  0.875010  0.077693  1
  Ti  Ti12  1  0.404282  0.376616  0.313570  1
  Ti  Ti13  1  0.897552  0.373089  0.319727  1
  Ti  Ti14  1  0.402948  0.899219  0.325122  1
  Ti  Ti15  1  0.914460  0.884532  0.310521  1
  Ti  Ti16  1  0.416661  0.374999  0.155323  1
  Ti  Ti17  1  0.916644  0.374975  0.155312  1
  Ti  Ti18  1  0.416680  0.875022  0.155362  1
  Ti  Ti19  1  0.916717  0.875038  0.155326  1
  Ti  Ti20  1  0.416666  0.375001  -0.000006  1
  Ti  Ti21  1  0.916658  0.374997  -0.000010  1
  Ti  Ti22  1  0.416671  0.874999  0.000008  1
  Ti  Ti23  1  0.916670  0.875004  -0.000001  1
  Ti  Ti24  1  0.102448  0.126911  0.319726  1
  Ti  Ti25  1  0.595718  0.123384  0.313569  1
  Ti  Ti26  1  0.085540  0.615468  0.310520  1
  Ti  Ti27  1  0.597052  0.600782  0.325121  1
  Ti  Ti28  1  0.083356  0.125028  0.155311  1
  Ti  Ti29  1  0.583339  0.125004  0.155323  1
  Ti  Ti30  1  0.083283  0.624964  0.155326  1
  Ti  Ti31  1  0.583320  0.624980  0.155362  1
  Ti  Ti32  1  0.083342  0.125004  -0.000010  1
  Ti  Ti33  1  0.583334  0.125000  -0.000006  1
  Ti  Ti34  1  0.083330  0.624997  -0.000001  1
  Ti  Ti35  1  0.583330  0.625001  0.000008  1
  Ti  Ti36  1  0.354599  0.159365  0.405743  1
  Ti  Ti37  1  0.856506  0.129499  0.406257  1
  Ti  Ti38  1  0.322862  0.614360  0.393689  1
  Ti  Ti39  1  0.862066  0.644336  0.393727  1
  Ti  Ti40  1  0.338225  0.126502  0.232865  1
  Ti  Ti41  1  0.839159  0.126946  0.235002  1
  Ti  Ti42  1  0.345229  0.632042  0.238592  1
  Ti  Ti43  1  0.836709  0.625984  0.234823  1
  Ti  Ti44  1  0.333339  0.125009  0.077673  1
  Ti  Ti45  1  0.833338  0.124997  0.077671  1
  Ti  Ti46  1  0.333330  0.624991  0.077693  1
  Ti  Ti47  1  0.833318  0.624988  0.077689  1
  Ti  Ti48  1  0.374995  0.375015  0.823760  1
  Ti  Ti49  1  0.874994  0.374993  0.823772  1
  Ti  Ti50  1  0.375000  0.874994  0.823752  1
  Ti  Ti51  1  0.874993  0.874997  0.823761  1
  Ti  Ti52  1  0.125006  0.125008  0.823772  1
  Ti  Ti53  1  0.625006  0.124984  0.823760  1
  Ti  Ti54  1  0.125007  0.625002  0.823761  1
  Ti  Ti55  1  0.625001  0.625006  0.823752  1
  Ti  Ti56  1  0.125001  0.375005  0.910098  1
  Ti  Ti57  1  0.625000  0.375003  0.910096  1
  Ti  Ti58  1  0.125002  0.875001  0.910100  1
  Ti  Ti59  1  0.625002  0.874996  0.910094  1
  Ti  Ti60  1  0.375001  0.124997  0.910096  1
  Ti  Ti61  1  0.875000  0.124995  0.910097  1
  Ti  Ti62  1  0.374999  0.625003  0.910094  1
  Ti  Ti63  1  0.874998  0.624998  0.910099  1
  Ti  Ti64  1  0.392808  0.387955  0.658055  1
  Ti  Ti65  1  0.894098  0.371998  0.647252  1
  Ti  Ti66  1  0.392785  0.892493  0.645643  1
  Ti  Ti67  1  0.880990  0.885512  0.668820  1
  Ti  Ti68  1  0.105902  0.128002  0.647252  1
  Ti  Ti69  1  0.607192  0.112044  0.658055  1
  Ti  Ti70  1  0.119010  0.614488  0.668820  1
  Ti  Ti71  1  0.607215  0.607507  0.645643  1
  Ti  Ti72  1  0.150817  0.379973  0.566892  1
  Ti  Ti73  1  0.641050  0.338248  0.573365  1
  Ti  Ti74  1  0.122169  0.858079  0.586688  1
  Ti  Ti75  1  0.656428  0.862133  0.575678  1
  Ti  Ti76  1  0.358950  0.161752  0.573365  1
  Ti  Ti77  1  0.849183  0.120027  0.566892  1
  Ti  Ti78  1  0.343572  0.637867  0.575678  1
  Ti  Ti79  1  0.877831  0.641921  0.586688  1
  Ti  Ti80  1  0.412591  0.408249  0.488384  1
  Ti  Ti81  1  0.899278  0.375619  0.488668  1
  Ti  Ti82  1  0.324697  0.927090  0.492844  1
  Ti  Ti83  1  0.908314  0.877260  0.487274  1
  Ti  Ti84  1  0.100722  0.124381  0.488668  1
  Ti  Ti85  1  0.587409  0.091751  0.488384  1
  Ti  Ti86  1  0.091686  0.622740  0.487274  1
  Ti  Ti87  1  0.675303  0.572910  0.492844  1
  Ti  Ti88  1  0.124972  0.875018  0.737470  1
  Ti  Ti89  1  0.625066  0.874960  0.737425  1
  Ti  Ti90  1  0.374934  0.625038  0.737426  1
  Ti  Ti91  1  0.875026  0.624979  0.737470  1
  Ti  Ti92  1  0.124992  0.375021  0.737471  1
  Ti  Ti93  1  0.625009  0.374931  0.737471  1
  Ti  Ti94  1  0.374989  0.125065  0.737471  1
  Ti  Ti95  1  0.875006  0.124976  0.737472  1
  Nb  Nb96  1  0.500000  0.750000  0.464283  1
