# generated using pymatgen
data_Ti96Mo
_symmetry_space_group_name_H-M   'P 1'
_cell_length_a   9.51302000
_cell_length_b   9.35086000
_cell_length_c   18.54723000
_cell_angle_alpha   90.00000000
_cell_angle_beta   90.00000000
_cell_angle_gamma   90.00000000
_symmetry_Int_Tables_number   1
_chemical_formula_structural   Ti96Mo
_chemical_formula_sum   'Ti96 Mo1'
_cell_volume   1649.86732743
_cell_formula_units_Z   1
loop_
 _symmetry_equiv_pos_site_id
 _symmetry_equiv_pos_as_xyz
  1  'x, y, z'
loop_
 _atom_site_type_symbol
 _atom_site_label
 _atom_site_symmetry_multiplicity
 _atom_site_fract_x
 _atom_site_fract_y
 _atom_site_fract_z
 _atom_site_occupancy
  Ti  Ti0  1  0.144796  0.372362  0.406420  1
  Ti  Ti1  1  0.646595  0.338598  0.406457  1
  Ti  Ti2  1  0.136848  0.855211  0.394148  1
  Ti  Ti3  1  0.672496  0.881336  0.395787  1
  Ti  Ti4  1  0.161222  0.373015  0.235170  1
  Ti  Ti5  1  0.661252  0.373257  0.232999  1
  Ti  Ti6  1  0.163156  0.873846  0.234835  1
  Ti  Ti7  1  0.653502  0.867244  0.239735  1
  Ti  Ti8  1  0.166651  0.375003  0.077664  1
  Ti  Ti9  1  0.666661  0.374982  0.077670  1
  Ti  Ti10  1  0.166678  0.875021  0.077686  1
  Ti  Ti11  1  0.666677  0.875005  0.077684  1
  Ti  Ti12  1  0.404368  0.377510  0.314617  1
  Ti  Ti13  1  0.897143  0.372849  0.320134  1
  Ti  Ti14  1  0.401305  0.901892  0.327398  1
  Ti  Ti15  1  0.913767  0.884890  0.310644  1
  Ti  Ti16  1  0.416666  0.374992  0.155303  1
  Ti  Ti17  1  0.916624  0.374945  0.155309  1
  Ti  Ti18  1  0.416677  0.875018  0.155362  1
  Ti  Ti19  1  0.916733  0.875049  0.155318  1
  Ti  Ti20  1  0.416667  0.375001  -0.000010  1
  Ti  Ti21  1  0.916653  0.374994  -0.000010  1
  Ti  Ti22  1  0.416670  0.874998  0.000005  1
  Ti  Ti23  1  0.916673  0.875005  -0.000006  1
  Ti  Ti24  1  0.102857  0.127151  0.320133  1
  Ti  Ti25  1  0.595631  0.122490  0.314616  1
  Ti  Ti26  1  0.086233  0.615111  0.310643  1
  Ti  Ti27  1  0.598695  0.598109  0.327397  1
  Ti  Ti28  1  0.083375  0.125058  0.155308  1
  Ti  Ti29  1  0.583334  0.125011  0.155303  1
  Ti  Ti30  1  0.083267  0.624954  0.155319  1
  Ti  Ti31  1  0.583324  0.624984  0.155362  1
  Ti  Ti32  1  0.083347  0.125007  -0.000010  1
  Ti  Ti33  1  0.583333  0.124999  -0.000010  1
  Ti  Ti34  1  0.083327  0.624996  -0.000005  1
  Ti  Ti35  1  0.583331  0.625003  0.000005  1
  Ti  Ti36  1  0.353404  0.161402  0.406457  1
  Ti  Ti37  1  0.855203  0.127638  0.406420  1
  Ti  Ti38  1  0.327503  0.618664  0.395787  1
  Ti  Ti39  1  0.863151  0.644789  0.394148  1
  Ti  Ti40  1  0.338747  0.126744  0.232999  1
  Ti  Ti41  1  0.838777  0.126985  0.235170  1
  Ti  Ti42  1  0.346497  0.632757  0.239735  1
  Ti  Ti43  1  0.836843  0.626154  0.234835  1
  Ti  Ti44  1  0.333338  0.125019  0.077670  1
  Ti  Ti45  1  0.833348  0.124999  0.077664  1
  Ti  Ti46  1  0.333322  0.624996  0.077684  1
  Ti  Ti47  1  0.833321  0.624981  0.077686  1
  Ti  Ti48  1  0.374990  0.375023  0.823769  1
  Ti  Ti49  1  0.874993  0.374985  0.823786  1
  Ti  Ti50  1  0.374991  0.874987  0.823750  1
  Ti  Ti51  1  0.875006  0.875008  0.823754  1
  Ti  Ti52  1  0.125008  0.125015  0.823786  1
  Ti  Ti53  1  0.625012  0.124975  0.823769  1
  Ti  Ti54  1  0.124994  0.624992  0.823755  1
  Ti  Ti55  1  0.625011  0.625013  0.823750  1
  Ti  Ti56  1  0.124998  0.375009  0.910102  1
  Ti  Ti57  1  0.625001  0.375006  0.910100  1
  Ti  Ti58  1  0.125000  0.874999  0.910096  1
  Ti  Ti59  1  0.625006  0.874995  0.910087  1
  Ti  Ti60  1  0.375001  0.124994  0.910100  1
  Ti  Ti61  1  0.875003  0.124991  0.910101  1
  Ti  Ti62  1  0.374995  0.625005  0.910088  1
  Ti  Ti63  1  0.875000  0.625001  0.910096  1
  Ti  Ti64  1  0.392682  0.388138  0.657541  1
  Ti  Ti65  1  0.894523  0.371848  0.647296  1
  Ti  Ti66  1  0.393318  0.892211  0.645221  1
  Ti  Ti67  1  0.881456  0.885759  0.667748  1
  Ti  Ti68  1  0.105477  0.128151  0.647296  1
  Ti  Ti69  1  0.607318  0.111862  0.657541  1
  Ti  Ti70  1  0.118544  0.614240  0.667748  1
  Ti  Ti71  1  0.606682  0.607788  0.645221  1
  Ti  Ti72  1  0.151062  0.378684  0.566557  1
  Ti  Ti73  1  0.642088  0.339116  0.573255  1
  Ti  Ti74  1  0.123761  0.858670  0.586495  1
  Ti  Ti75  1  0.656285  0.860074  0.574001  1
  Ti  Ti76  1  0.357912  0.160884  0.573254  1
  Ti  Ti77  1  0.848938  0.121316  0.566557  1
  Ti  Ti78  1  0.343715  0.639925  0.574001  1
  Ti  Ti79  1  0.876239  0.641329  0.586495  1
  Ti  Ti80  1  0.413371  0.409154  0.488599  1
  Ti  Ti81  1  0.898988  0.376314  0.488375  1
  Ti  Ti82  1  0.328623  0.923264  0.491713  1
  Ti  Ti83  1  0.909688  0.877457  0.487957  1
  Ti  Ti84  1  0.101012  0.123686  0.488375  1
  Ti  Ti85  1  0.586629  0.090846  0.488599  1
  Ti  Ti86  1  0.090312  0.622543  0.487957  1
  Ti  Ti87  1  0.671377  0.576736  0.491713  1
  Ti  Ti88  1  0.124962  0.875033  0.737478  1
  Ti  Ti89  1  0.625099  0.874961  0.737422  1
  Ti  Ti90  1  0.374900  0.625037  0.737422  1
  Ti  Ti91  1  0.875036  0.624963  0.737478  1
  Ti  Ti92  1  0.124974  0.375022  0.737495  1
  Ti  Ti93  1  0.625008  0.374909  0.737497  1
  Ti  Ti94  1  0.374989  0.125086  0.737496  1
  Ti  Ti95  1  0.875024  0.124973  0.737495  1
  Mo  Mo96  1  0.500000  0.750000  0.465375  1
