# generated using pymatgen
data_Ti96Nb
_symmetry_space_group_name_H-M   'P 1'
_cell_length_a   9.51302000
_cell_length_b   9.35086000
_cell_length_c   18.54723000
_cell_angle_alpha   90.00000000
_cell_angle_beta   90.00000000
_cell_angle_gamma   90.00000000
_symmetry_Int_Tables_number   1
_chemical_formula_structural   Ti96Nb
_chemical_formula_sum   'Ti96 Nb1'
_cell_volume   1649.86732743
_cell_formula_units_Z   1
loop_
 _symmetry_equiv_pos_site_id
 _symmetry_equiv_pos_as_xyz
  1  'x, y, z'
loop_
 _atom_site_type_symbol
 _atom_site_label
 _atom_site_symmetry_multiplicity
 _atom_site_fract_x
 _atom_site_fract_y
 _atom_site_fract_z
 _atom_site_occupancy
  Ti  Ti0  1  0.146153  0.376342  0.398915  1
  Ti  Ti1  1  0.650207  0.372165  0.397673  1
  Ti  Ti2  1  0.165161  0.886534  0.394429  1
  Ti  Ti3  1  0.651722  0.906299  0.403793  1
  Ti  Ti4  1  0.162936  0.377792  0.236707  1
  Ti  Ti5  1  0.660853  0.379039  0.234572  1
  Ti  Ti6  1  0.158075  0.875614  0.235401  1
  Ti  Ti7  1  0.661063  0.875346  0.233339  1
  Ti  Ti8  1  0.166662  0.374995  0.077672  1
  Ti  Ti9  1  0.666664  0.374980  0.077670  1
  Ti  Ti10  1  0.166675  0.875021  0.077688  1
  Ti  Ti11  1  0.666676  0.875022  0.077695  1
  Ti  Ti12  1  0.410696  0.373863  0.316809  1
  Ti  Ti13  1  0.907878  0.372539  0.312425  1
  Ti  Ti14  1  0.411807  0.872015  0.316898  1
  Ti  Ti15  1  0.899941  0.866131  0.322832  1
  Ti  Ti16  1  0.416665  0.374969  0.155312  1
  Ti  Ti17  1  0.916650  0.374975  0.155315  1
  Ti  Ti18  1  0.416711  0.875057  0.155339  1
  Ti  Ti19  1  0.916696  0.875054  0.155343  1
  Ti  Ti20  1  0.416679  0.375010  -0.000009  1
  Ti  Ti21  1  0.916651  0.375008  -0.000006  1
  Ti  Ti22  1  0.416690  0.875004  0.000003  1
  Ti  Ti23  1  0.916652  0.875004  0.000006  1
  Ti  Ti24  1  0.089304  0.126138  0.316808  1
  Ti  Ti25  1  0.592122  0.127461  0.312424  1
  Ti  Ti26  1  0.088193  0.627986  0.316897  1
  Ti  Ti27  1  0.600059  0.633869  0.322831  1
  Ti  Ti28  1  0.083336  0.125037  0.155312  1
  Ti  Ti29  1  0.583349  0.125030  0.155315  1
  Ti  Ti30  1  0.083290  0.624947  0.155340  1
  Ti  Ti31  1  0.583304  0.624950  0.155343  1
  Ti  Ti32  1  0.083322  0.124997  -0.000009  1
  Ti  Ti33  1  0.583349  0.124997  -0.000007  1
  Ti  Ti34  1  0.083310  0.625001  0.000003  1
  Ti  Ti35  1  0.583348  0.625000  0.000005  1
  Ti  Ti36  1  0.353846  0.123658  0.398915  1
  Ti  Ti37  1  0.849792  0.127835  0.397673  1
  Ti  Ti38  1  0.334838  0.613466  0.394429  1
  Ti  Ti39  1  0.848277  0.593701  0.403793  1
  Ti  Ti40  1  0.337063  0.122208  0.236707  1
  Ti  Ti41  1  0.839146  0.120962  0.234572  1
  Ti  Ti42  1  0.341924  0.624387  0.235401  1
  Ti  Ti43  1  0.838936  0.624654  0.233339  1
  Ti  Ti44  1  0.333337  0.125011  0.077672  1
  Ti  Ti45  1  0.833335  0.125025  0.077670  1
  Ti  Ti46  1  0.333323  0.624983  0.077688  1
  Ti  Ti47  1  0.833324  0.624981  0.077695  1
  Ti  Ti48  1  0.374973  0.375023  0.823850  1
  Ti  Ti49  1  0.875016  0.375002  0.823818  1
  Ti  Ti50  1  0.375010  0.875020  0.823878  1
  Ti  Ti51  1  0.875037  0.874955  0.823798  1
  Ti  Ti52  1  0.125029  0.124977  0.823849  1
  Ti  Ti53  1  0.624987  0.124996  0.823818  1
  Ti  Ti54  1  0.124992  0.624978  0.823877  1
  Ti  Ti55  1  0.624967  0.625042  0.823798  1
  Ti  Ti56  1  0.124988  0.374992  0.910137  1
  Ti  Ti57  1  0.625001  0.375022  0.910114  1
  Ti  Ti58  1  0.124996  0.875000  0.910154  1
  Ti  Ti59  1  0.625009  0.874987  0.910124  1
  Ti  Ti60  1  0.375015  0.125009  0.910137  1
  Ti  Ti61  1  0.875000  0.124979  0.910113  1
  Ti  Ti62  1  0.375007  0.624998  0.910155  1
  Ti  Ti63  1  0.874993  0.625013  0.910123  1
  Ti  Ti64  1  0.395077  0.373927  0.645982  1
  Ti  Ti65  1  0.885198  0.352020  0.659069  1
  Ti  Ti66  1  0.374023  0.867726  0.669206  1
  Ti  Ti67  1  0.889445  0.868706  0.653407  1
  Ti  Ti68  1  0.104922  0.126072  0.645982  1
  Ti  Ti69  1  0.614801  0.147978  0.659069  1
  Ti  Ti70  1  0.125977  0.632271  0.669206  1
  Ti  Ti71  1  0.610554  0.631292  0.653407  1
  Ti  Ti72  1  0.143318  0.386177  0.574924  1
  Ti  Ti73  1  0.656756  0.392427  0.569574  1
  Ti  Ti74  1  0.150391  0.873173  0.573612  1
  Ti  Ti75  1  0.590793  0.916631  0.580833  1
  Ti  Ti76  1  0.356682  0.113822  0.574925  1
  Ti  Ti77  1  0.843243  0.107573  0.569574  1
  Ti  Ti78  1  0.349609  0.626827  0.573613  1
  Ti  Ti79  1  0.909207  0.583368  0.580833  1
  Ti  Ti80  1  0.383183  0.365008  0.488701  1
  Ti  Ti81  1  0.901939  0.348703  0.489045  1
  Ti  Ti82  1  0.391194  0.859004  0.480227  1
  Ti  Ti83  1  -0.062565  -0.098130  0.477598  1
  Ti  Ti84  1  0.116817  0.134992  0.488701  1
  Ti  Ti85  1  0.598061  0.151297  0.489045  1
  Ti  Ti86  1  0.108806  0.640996  0.480227  1
  Ti  Ti87  1  0.562565  0.598130  0.477598  1
  Ti  Ti88  1  0.125014  0.875122  0.737637  1
  Ti  Ti89  1  0.624933  0.875066  0.737584  1
  Ti  Ti90  1  0.374980  0.624865  0.737639  1
  Ti  Ti91  1  0.875063  0.624924  0.737584  1
  Ti  Ti92  1  0.125114  0.374914  0.737587  1
  Ti  Ti93  1  0.624829  0.375417  0.737589  1
  Ti  Ti94  1  0.374882  0.125077  0.737587  1
  Ti  Ti95  1  0.875167  0.124573  0.737593  1
  Nb  Nb96  1  0.750000  0.750000  0.523228  1
