# generated using pymatgen
data_Ti
_symmetry_space_group_name_H-M   'P 1'
_cell_length_a   9.51302000
_cell_length_b   9.35086000
_cell_length_c   18.54723000
_cell_angle_alpha   90.00000000
_cell_angle_beta   90.00000000
_cell_angle_gamma   90.00000000
_symmetry_Int_Tables_number   1
_chemical_formula_structural   Ti
_chemical_formula_sum   Ti97
_cell_volume   1649.86732743
_cell_formula_units_Z   97
loop_
 _symmetry_equiv_pos_site_id
 _symmetry_equiv_pos_as_xyz
  1  'x, y, z'
loop_
 _atom_site_type_symbol
 _atom_site_label
 _atom_site_symmetry_multiplicity
 _atom_site_fract_x
 _atom_site_fract_y
 _atom_site_fract_z
 _atom_site_occupancy
  Ti  Ti0  1  0.141645  0.363931  0.403905  1
  Ti  Ti1  1  0.654084  0.360028  0.400836  1
  Ti  Ti2  1  0.166907  0.862010  0.400375  1
  Ti  Ti3  1  0.677147  0.907889  0.405183  1
  Ti  Ti4  1  0.159316  0.378047  0.237188  1
  Ti  Ti5  1  0.664380  0.367889  0.230164  1
  Ti  Ti6  1  0.159451  0.874437  0.234074  1
  Ti  Ti7  1  0.657686  0.863667  0.243013  1
  Ti  Ti8  1  0.166658  0.374981  0.077607  1
  Ti  Ti9  1  0.666664  0.375025  0.077682  1
  Ti  Ti10  1  0.166690  0.874999  0.077664  1
  Ti  Ti11  1  0.666669  0.875029  0.077657  1
  Ti  Ti12  1  0.405918  0.371700  0.313884  1
  Ti  Ti13  1  0.903246  0.377544  0.318162  1
  Ti  Ti14  1  0.398350  0.899813  0.312328  1
  Ti  Ti15  1  0.913383  0.877457  0.319927  1
  Ti  Ti16  1  0.416694  0.374881  0.155243  1
  Ti  Ti17  1  0.916579  0.375025  0.155196  1
  Ti  Ti18  1  0.416627  0.875012  0.155321  1
  Ti  Ti19  1  0.916797  0.875028  0.155177  1
  Ti  Ti20  1  0.416696  0.375044  0.000083  1
  Ti  Ti21  1  0.916598  0.375043  0.000025  1
  Ti  Ti22  1  0.416686  0.874958  0.000144  1
  Ti  Ti23  1  0.916634  0.874981  0.000048  1
  Ti  Ti24  1  0.096754  0.122457  0.318161  1
  Ti  Ti25  1  0.594082  0.128301  0.313883  1
  Ti  Ti26  1  0.086617  0.622545  0.319926  1
  Ti  Ti27  1  0.601650  0.600188  0.312327  1
  Ti  Ti28  1  0.083422  0.124995  0.155197  1
  Ti  Ti29  1  0.583306  0.125140  0.155241  1
  Ti  Ti30  1  0.083202  0.624993  0.155176  1
  Ti  Ti31  1  0.583373  0.625004  0.155321  1
  Ti  Ti32  1  0.083404  0.124962  0.000027  1
  Ti  Ti33  1  0.583305  0.124958  0.000084  1
  Ti  Ti34  1  0.083366  0.625027  0.000047  1
  Ti  Ti35  1  0.583315  0.625039  0.000143  1
  Ti  Ti36  1  0.345915  0.139972  0.400836  1
  Ti  Ti37  1  0.858354  0.136070  0.403905  1
  Ti  Ti38  1  0.322851  0.592111  0.405183  1
  Ti  Ti39  1  0.833092  0.637990  0.400375  1
  Ti  Ti40  1  0.335620  0.132116  0.230164  1
  Ti  Ti41  1  0.840683  0.121958  0.237188  1
  Ti  Ti42  1  0.342313  0.636337  0.243013  1
  Ti  Ti43  1  0.840548  0.625567  0.234074  1
  Ti  Ti44  1  0.333336  0.124987  0.077682  1
  Ti  Ti45  1  0.833341  0.125035  0.077607  1
  Ti  Ti46  1  0.333331  0.624986  0.077657  1
  Ti  Ti47  1  0.833309  0.625015  0.077663  1
  Ti  Ti48  1  0.374936  0.375071  0.824002  1
  Ti  Ti49  1  0.874970  0.375017  0.823932  1
  Ti  Ti50  1  0.375012  0.874923  0.823971  1
  Ti  Ti51  1  0.875091  0.875026  0.823874  1
  Ti  Ti52  1  0.125036  0.124976  0.823934  1
  Ti  Ti53  1  0.625066  0.124923  0.824003  1
  Ti  Ti54  1  0.124916  0.624974  0.823875  1
  Ti  Ti55  1  0.624994  0.625055  0.823968  1
  Ti  Ti56  1  0.124951  0.375035  0.910179  1
  Ti  Ti57  1  0.625014  0.375025  0.910217  1
  Ti  Ti58  1  0.125016  0.874964  0.910178  1
  Ti  Ti59  1  0.625011  0.874984  0.910207  1
  Ti  Ti60  1  0.374992  0.124968  0.910219  1
  Ti  Ti61  1  0.875054  0.124961  0.910179  1
  Ti  Ti62  1  0.374994  0.625009  0.910206  1
  Ti  Ti63  1  0.874987  0.625032  0.910176  1
  Ti  Ti64  1  0.389391  0.389916  0.658075  1
  Ti  Ti65  1  0.897003  0.382280  0.650078  1
  Ti  Ti66  1  0.385556  0.882293  0.658394  1
  Ti  Ti67  1  0.892240  0.882632  0.658032  1
  Ti  Ti68  1  0.102997  0.117716  0.650078  1
  Ti  Ti69  1  0.610606  0.110078  0.658075  1
  Ti  Ti70  1  0.107759  0.617363  0.658032  1
  Ti  Ti71  1  0.614441  0.617701  0.658394  1
  Ti  Ti72  1  0.146686  0.372665  0.568890  1
  Ti  Ti73  1  0.648343  0.356900  0.583989  1
  Ti  Ti74  1  0.143951  0.857814  0.574880  1
  Ti  Ti75  1  0.656806  0.874943  0.565787  1
  Ti  Ti76  1  0.351656  0.143097  0.583989  1
  Ti  Ti77  1  0.853314  0.127333  0.568889  1
  Ti  Ti78  1  0.343193  0.625055  0.565787  1
  Ti  Ti79  1  0.856049  0.642185  0.574880  1
  Ti  Ti80  1  0.402950  0.367063  0.492065  1
  Ti  Ti81  1  0.891656  0.380020  0.490043  1
  Ti  Ti82  1  0.374419  0.928293  0.497350  1
  Ti  Ti83  1  0.916103  0.879946  0.483561  1
  Ti  Ti84  1  0.108343  0.119980  0.490043  1
  Ti  Ti85  1  0.597050  0.132937  0.492065  1
  Ti  Ti86  1  0.083897  0.620054  0.483561  1
  Ti  Ti87  1  0.625581  0.571707  0.497350  1
  Ti  Ti88  1  0.125237  0.874855  0.737682  1
  Ti  Ti89  1  0.625271  0.874952  0.737736  1
  Ti  Ti90  1  0.374718  0.625025  0.737737  1
  Ti  Ti91  1  0.874757  0.625129  0.737682  1
  Ti  Ti92  1  0.124525  0.375079  0.737694  1
  Ti  Ti93  1  0.625120  0.375126  0.737833  1
  Ti  Ti94  1  0.374868  0.124846  0.737837  1
  Ti  Ti95  1  0.875470  0.124903  0.737691  1
  Ti  Ti96  1  0.500000  0.750000  0.448958  1
