# generated using pymatgen
data_Ti96Nb
_symmetry_space_group_name_H-M   'P 1'
_cell_length_a   9.51302000
_cell_length_b   9.35086000
_cell_length_c   18.54723000
_cell_angle_alpha   90.00000000
_cell_angle_beta   90.00000000
_cell_angle_gamma   90.00000000
_symmetry_Int_Tables_number   1
_chemical_formula_structural   Ti96Nb
_chemical_formula_sum   'Ti96 Nb1'
_cell_volume   1649.86732743
_cell_formula_units_Z   1
loop_
 _symmetry_equiv_pos_site_id
 _symmetry_equiv_pos_as_xyz
  1  'x, y, z'
loop_
 _atom_site_type_symbol
 _atom_site_label
 _atom_site_symmetry_multiplicity
 _atom_site_fract_x
 _atom_site_fract_y
 _atom_site_fract_z
 _atom_site_occupancy
  Ti  Ti0  1  0.147383  0.374636  0.405183  1
  Ti  Ti1  1  0.643606  0.333856  0.406310  1
  Ti  Ti2  1  0.123724  0.853557  0.400326  1
  Ti  Ti3  1  0.681973  0.878071  0.394352  1
  Ti  Ti4  1  0.159282  0.370420  0.236089  1
  Ti  Ti5  1  0.659395  0.370186  0.234271  1
  Ti  Ti6  1  0.161328  0.871896  0.233243  1
  Ti  Ti7  1  0.659446  0.874687  0.234164  1
  Ti  Ti8  1  0.166641  0.375041  0.077548  1
  Ti  Ti9  1  0.666705  0.375004  0.077504  1
  Ti  Ti10  1  0.166725  0.875003  0.077500  1
  Ti  Ti11  1  0.666657  0.875024  0.077517  1
  Ti  Ti12  1  0.408146  0.385663  0.316474  1
  Ti  Ti13  1  0.898655  0.372165  0.320949  1
  Ti  Ti14  1  0.379977  0.907301  0.328794  1
  Ti  Ti15  1  0.913678  0.883816  0.310275  1
  Ti  Ti16  1  0.416698  0.375131  0.155091  1
  Ti  Ti17  1  0.916648  0.374903  0.155106  1
  Ti  Ti18  1  0.416651  0.875057  0.155205  1
  Ti  Ti19  1  0.916731  0.875196  0.155022  1
  Ti  Ti20  1  0.416664  0.375027  -0.000086  1
  Ti  Ti21  1  0.916647  0.374992  -0.000098  1
  Ti  Ti22  1  0.416683  0.874982  -0.000067  1
  Ti  Ti23  1  0.916669  0.875008  -0.000135  1
  Ti  Ti24  1  0.101345  0.127836  0.320948  1
  Ti  Ti25  1  0.591854  0.114338  0.316473  1
  Ti  Ti26  1  0.086322  0.616186  0.310274  1
  Ti  Ti27  1  0.620023  0.592700  0.328793  1
  Ti  Ti28  1  0.083352  0.125112  0.155105  1
  Ti  Ti29  1  0.583302  0.124888  0.155093  1
  Ti  Ti30  1  0.083269  0.624827  0.155024  1
  Ti  Ti31  1  0.583350  0.624959  0.155205  1
  Ti  Ti32  1  0.083356  0.125009  -0.000099  1
  Ti  Ti33  1  0.583336  0.124978  -0.000085  1
  Ti  Ti34  1  0.083331  0.625004  -0.000135  1
  Ti  Ti35  1  0.583318  0.625027  -0.000069  1
  Ti  Ti36  1  0.356393  0.166144  0.406310  1
  Ti  Ti37  1  0.852616  0.125364  0.405183  1
  Ti  Ti38  1  0.318026  0.621930  0.394352  1
  Ti  Ti39  1  0.876275  0.646443  0.400326  1
  Ti  Ti40  1  0.340604  0.129818  0.234271  1
  Ti  Ti41  1  0.840717  0.129584  0.236089  1
  Ti  Ti42  1  0.340553  0.625318  0.234164  1
  Ti  Ti43  1  0.838671  0.628109  0.233243  1
  Ti  Ti44  1  0.333294  0.125009  0.077504  1
  Ti  Ti45  1  0.833358  0.124970  0.077549  1
  Ti  Ti46  1  0.333342  0.624992  0.077516  1
  Ti  Ti47  1  0.833275  0.625014  0.077499  1
  Ti  Ti48  1  0.375007  0.375064  0.823842  1
  Ti  Ti49  1  0.874986  0.375013  0.823907  1
  Ti  Ti50  1  0.375022  0.874921  0.823776  1
  Ti  Ti51  1  0.875026  0.875019  0.823699  1
  Ti  Ti52  1  0.125022  0.124974  0.823906  1
  Ti  Ti53  1  0.624993  0.124922  0.823842  1
  Ti  Ti54  1  0.124978  0.624974  0.823700  1
  Ti  Ti55  1  0.624988  0.625076  0.823775  1
  Ti  Ti56  1  0.125059  0.375104  0.910085  1
  Ti  Ti57  1  0.624970  0.375101  0.910068  1
  Ti  Ti58  1  0.125059  0.874926  0.910020  1
  Ti  Ti59  1  0.624969  0.874954  0.909988  1
  Ti  Ti60  1  0.375037  0.124891  0.910068  1
  Ti  Ti61  1  0.874947  0.124887  0.910086  1
  Ti  Ti62  1  0.375034  0.625045  0.909987  1
  Ti  Ti63  1  0.874945  0.625071  0.910018  1
  Ti  Ti64  1  0.394194  0.384434  0.658145  1
  Ti  Ti65  1  0.893687  0.375107  0.648864  1
  Ti  Ti66  1  0.394722  0.892109  0.646573  1
  Ti  Ti67  1  0.883161  0.886368  0.666444  1
  Ti  Ti68  1  0.106310  0.124888  0.648864  1
  Ti  Ti69  1  0.605804  0.115561  0.658144  1
  Ti  Ti70  1  0.116838  0.613626  0.666445  1
  Ti  Ti71  1  0.605276  0.607885  0.646574  1
  Ti  Ti72  1  0.150235  0.371979  0.570173  1
  Ti  Ti73  1  0.641701  0.343097  0.571930  1
  Ti  Ti74  1  0.127568  0.859521  0.585308  1
  Ti  Ti75  1  0.654047  0.864119  0.577336  1
  Ti  Ti76  1  0.358298  0.156902  0.571930  1
  Ti  Ti77  1  0.849765  0.128019  0.570173  1
  Ti  Ti78  1  0.345952  0.635879  0.577337  1
  Ti  Ti79  1  0.872432  0.640477  0.585308  1
  Ti  Ti80  1  0.409631  0.408551  0.489249  1
  Ti  Ti81  1  0.899875  0.374237  0.486501  1
  Ti  Ti82  1  0.329823  0.923668  0.488227  1
  Ti  Ti83  1  0.904376  0.884683  0.493631  1
  Ti  Ti84  1  0.100125  0.125762  0.486501  1
  Ti  Ti85  1  0.590369  0.091448  0.489249  1
  Ti  Ti86  1  0.095623  0.615317  0.493631  1
  Ti  Ti87  1  0.670177  0.576332  0.488227  1
  Ti  Ti88  1  0.124941  0.874902  0.737560  1
  Ti  Ti89  1  0.625187  0.875136  0.737482  1
  Ti  Ti90  1  0.374809  0.624851  0.737486  1
  Ti  Ti91  1  0.875051  0.625080  0.737558  1
  Ti  Ti92  1  0.125063  0.375101  0.737696  1
  Ti  Ti93  1  0.624891  0.374970  0.737739  1
  Ti  Ti94  1  0.375095  0.124995  0.737737  1
  Ti  Ti95  1  0.874926  0.124870  0.737699  1
  Nb  Nb96  1  0.500000  0.750000  0.440303  1
