# generated using pymatgen
data_Ti96Mo
_symmetry_space_group_name_H-M   'P 1'
_cell_length_a   9.51302000
_cell_length_b   9.35086000
_cell_length_c   18.54723000
_cell_angle_alpha   90.00000000
_cell_angle_beta   90.00000000
_cell_angle_gamma   90.00000000
_symmetry_Int_Tables_number   1
_chemical_formula_structural   Ti96Mo
_chemical_formula_sum   'Ti96 Mo1'
_cell_volume   1649.86732743
_cell_formula_units_Z   1
loop_
 _symmetry_equiv_pos_site_id
 _symmetry_equiv_pos_as_xyz
  1  'x, y, z'
loop_
 _atom_site_type_symbol
 _atom_site_label
 _atom_site_symmetry_multiplicity
 _atom_site_fract_x
 _atom_site_fract_y
 _atom_site_fract_z
 _atom_site_occupancy
  Ti  Ti0  1  0.134631  0.381036  0.408869  1
  Ti  Ti1  1  0.641736  0.359803  0.414234  1
  Ti  Ti2  1  0.167335  0.889550  0.401718  1
  Ti  Ti3  1  0.640988  0.932213  0.421284  1
  Ti  Ti4  1  0.157006  0.382207  0.236938  1
  Ti  Ti5  1  0.659757  0.372330  0.229634  1
  Ti  Ti6  1  0.165604  0.876610  0.238877  1
  Ti  Ti7  1  0.653107  0.889724  0.233857  1
  Ti  Ti8  1  0.166666  0.375000  0.077689  1
  Ti  Ti9  1  0.666666  0.375000  0.077689  1
  Ti  Ti10  1  0.166666  0.875000  0.077689  1
  Ti  Ti11  1  0.666666  0.875000  0.077689  1
  Ti  Ti12  1  0.389078  0.354489  0.320469  1
  Ti  Ti13  1  0.898322  0.361454  0.317163  1
  Ti  Ti14  1  0.423241  0.852624  0.327410  1
  Ti  Ti15  1  0.927217  0.923789  0.320553  1
  Ti  Ti16  1  0.416667  0.375000  0.155379  1
  Ti  Ti17  1  0.916667  0.375000  0.155379  1
  Ti  Ti18  1  0.416667  0.875000  0.155379  1
  Ti  Ti19  1  0.916667  0.875000  0.155379  1
  Ti  Ti20  1  0.416667  0.375000  0.000000  1
  Ti  Ti21  1  0.916667  0.375000  0.000000  1
  Ti  Ti22  1  0.416667  0.875000  0.000000  1
  Ti  Ti23  1  0.916667  0.875000  0.000000  1
  Ti  Ti24  1  0.110922  0.145511  0.320468  1
  Ti  Ti25  1  0.601678  0.138546  0.317162  1
  Ti  Ti26  1  0.076759  0.647376  0.327409  1
  Ti  Ti27  1  0.572783  0.576211  0.320552  1
  Ti  Ti28  1  0.083333  0.125000  0.155379  1
  Ti  Ti29  1  0.583333  0.125000  0.155379  1
  Ti  Ti30  1  0.083333  0.625000  0.155379  1
  Ti  Ti31  1  0.583333  0.625000  0.155379  1
  Ti  Ti32  1  0.083333  0.125000  0.000000  1
  Ti  Ti33  1  0.583333  0.125000  0.000000  1
  Ti  Ti34  1  0.083333  0.625000  0.000000  1
  Ti  Ti35  1  0.583333  0.625000  0.000000  1
  Ti  Ti36  1  0.365368  0.118964  0.408869  1
  Ti  Ti37  1  0.858263  0.140197  0.414234  1
  Ti  Ti38  1  0.332664  0.610450  0.401718  1
  Ti  Ti39  1  0.859011  0.567787  0.421284  1
  Ti  Ti40  1  0.342993  0.117793  0.236938  1
  Ti  Ti41  1  0.840242  0.127670  0.229634  1
  Ti  Ti42  1  0.334395  0.623390  0.238877  1
  Ti  Ti43  1  0.846892  0.610276  0.233857  1
  Ti  Ti44  1  0.333333  0.125000  0.077689  1
  Ti  Ti45  1  0.833333  0.125000  0.077689  1
  Ti  Ti46  1  0.333333  0.625000  0.077689  1
  Ti  Ti47  1  0.833333  0.625000  0.077689  1
  Ti  Ti48  1  0.375000  0.375000  0.823738  1
  Ti  Ti49  1  0.875000  0.375000  0.823738  1
  Ti  Ti50  1  0.375000  0.875000  0.823738  1
  Ti  Ti51  1  0.875000  0.875000  0.823738  1
  Ti  Ti52  1  0.125000  0.125000  0.823738  1
  Ti  Ti53  1  0.625000  0.125000  0.823738  1
  Ti  Ti54  1  0.125000  0.625000  0.823738  1
  Ti  Ti55  1  0.625000  0.625000  0.823738  1
  Ti  Ti56  1  0.125000  0.375000  0.910084  1
  Ti  Ti57  1  0.625000  0.375000  0.910084  1
  Ti  Ti58  1  0.125000  0.875000  0.910084  1
  Ti  Ti59  1  0.625000  0.875000  0.910084  1
  Ti  Ti60  1  0.375000  0.125000  0.910084  1
  Ti  Ti61  1  0.875000  0.125000  0.910084  1
  Ti  Ti62  1  0.375000  0.625000  0.910084  1
  Ti  Ti63  1  0.875000  0.625000  0.910084  1
  Ti  Ti64  1  0.400370  0.363552  0.649289  1
  Ti  Ti65  1  0.893733  0.363191  0.653476  1
  Ti  Ti66  1  0.383185  0.869640  0.666033  1
  Ti  Ti67  1  0.884185  0.869636  0.668472  1
  Ti  Ti68  1  0.099630  0.136448  0.649289  1
  Ti  Ti69  1  0.606267  0.136809  0.653476  1
  Ti  Ti70  1  0.116815  0.630360  0.666033  1
  Ti  Ti71  1  0.615815  0.630364  0.668472  1
  Ti  Ti72  1  0.157854  0.394212  0.574234  1
  Ti  Ti73  1  0.652981  0.410700  0.572502  1
  Ti  Ti74  1  0.131165  0.875461  0.579207  1
  Ti  Ti75  1  0.630573  0.870872  0.579173  1
  Ti  Ti76  1  0.342146  0.105788  0.574234  1
  Ti  Ti77  1  0.847019  0.089300  0.572502  1
  Ti  Ti78  1  0.368835  0.624539  0.579207  1
  Ti  Ti79  1  0.869427  0.629128  0.579173  1
  Ti  Ti80  1  0.398104  0.371003  0.494670  1
  Ti  Ti81  1  0.907733  0.352116  0.506537  1
  Ti  Ti82  1  0.387576  0.856779  0.489072  1
  Ti  Ti83  1  0.901787  0.851504  0.476573  1
  Ti  Ti84  1  0.101896  0.128997  0.494670  1
  Ti  Ti85  1  0.592267  0.147884  0.506537  1
  Ti  Ti86  1  0.112424  0.643221  0.489072  1
  Ti  Ti87  1  0.598213  0.648496  0.476573  1
  Ti  Ti88  1  0.125000  0.875000  0.737395  1
  Ti  Ti89  1  0.625000  0.875000  0.737395  1
  Ti  Ti90  1  0.375000  0.625000  0.737395  1
  Ti  Ti91  1  0.875000  0.625000  0.737395  1
  Ti  Ti92  1  0.125000  0.375000  0.737395  1
  Ti  Ti93  1  0.625000  0.375000  0.737395  1
  Ti  Ti94  1  0.375000  0.125000  0.737395  1
  Ti  Ti95  1  0.875000  0.125000  0.737395  1
  Mo  Mo96  1  0.750000  0.750000  0.337802  1
