# generated using pymatgen
data_Ti
_symmetry_space_group_name_H-M   'P 1'
_cell_length_a   9.51302000
_cell_length_b   9.35086000
_cell_length_c   18.54723000
_cell_angle_alpha   90.00000000
_cell_angle_beta   90.00000000
_cell_angle_gamma   90.00000000
_symmetry_Int_Tables_number   1
_chemical_formula_structural   Ti
_chemical_formula_sum   Ti97
_cell_volume   1649.86732743
_cell_formula_units_Z   97
loop_
 _symmetry_equiv_pos_site_id
 _symmetry_equiv_pos_as_xyz
  1  'x, y, z'
loop_
 _atom_site_type_symbol
 _atom_site_label
 _atom_site_symmetry_multiplicity
 _atom_site_fract_x
 _atom_site_fract_y
 _atom_site_fract_z
 _atom_site_occupancy
  Ti  Ti0  1  0.146712  0.375964  0.400567  1
  Ti  Ti1  1  0.650944  0.377708  0.399211  1
  Ti  Ti2  1  0.161314  0.888249  0.392470  1
  Ti  Ti3  1  0.649272  0.902489  0.409382  1
  Ti  Ti4  1  0.162318  0.377523  0.237116  1
  Ti  Ti5  1  0.660822  0.377323  0.234950  1
  Ti  Ti6  1  0.158135  0.875468  0.235656  1
  Ti  Ti7  1  0.661940  0.876460  0.233248  1
  Ti  Ti8  1  0.166658  0.374995  0.077683  1
  Ti  Ti9  1  0.666671  0.374995  0.077688  1
  Ti  Ti10  1  0.166670  0.874994  0.077694  1
  Ti  Ti11  1  0.666672  0.874995  0.077703  1
  Ti  Ti12  1  0.411084  0.371556  0.316277  1
  Ti  Ti13  1  0.906361  0.374874  0.315038  1
  Ti  Ti14  1  0.413057  0.872686  0.317448  1
  Ti  Ti15  1  0.897711  0.868680  0.320367  1
  Ti  Ti16  1  0.416676  0.374995  0.155344  1
  Ti  Ti17  1  0.916648  0.374974  0.155356  1
  Ti  Ti18  1  0.416697  0.875015  0.155354  1
  Ti  Ti19  1  0.916673  0.874960  0.155352  1
  Ti  Ti20  1  0.416679  0.375009  -0.000005  1
  Ti  Ti21  1  0.916654  0.375006  -0.000001  1
  Ti  Ti22  1  0.416682  0.874999  0.000004  1
  Ti  Ti23  1  0.916655  0.874993  0.000005  1
  Ti  Ti24  1  0.088916  0.128444  0.316276  1
  Ti  Ti25  1  0.593639  0.125126  0.315037  1
  Ti  Ti26  1  0.086943  0.627314  0.317447  1
  Ti  Ti27  1  0.602289  0.631320  0.320366  1
  Ti  Ti28  1  0.083324  0.125008  0.155344  1
  Ti  Ti29  1  0.583352  0.125028  0.155355  1
  Ti  Ti30  1  0.083303  0.624987  0.155354  1
  Ti  Ti31  1  0.583326  0.625043  0.155352  1
  Ti  Ti32  1  0.083321  0.124995  -0.000005  1
  Ti  Ti33  1  0.583346  0.124998  -0.000001  1
  Ti  Ti34  1  0.083318  0.625004  0.000004  1
  Ti  Ti35  1  0.583345  0.625009  0.000005  1
  Ti  Ti36  1  0.353287  0.124036  0.400567  1
  Ti  Ti37  1  0.849055  0.122292  0.399211  1
  Ti  Ti38  1  0.338685  0.611751  0.392470  1
  Ti  Ti39  1  0.850727  0.597511  0.409382  1
  Ti  Ti40  1  0.337681  0.122477  0.237116  1
  Ti  Ti41  1  0.839177  0.122677  0.234950  1
  Ti  Ti42  1  0.341864  0.624532  0.235656  1
  Ti  Ti43  1  0.838059  0.623541  0.233248  1
  Ti  Ti44  1  0.333341  0.125009  0.077682  1
  Ti  Ti45  1  0.833328  0.125007  0.077687  1
  Ti  Ti46  1  0.333329  0.625008  0.077694  1
  Ti  Ti47  1  0.833327  0.625007  0.077702  1
  Ti  Ti48  1  0.374976  0.375003  0.823801  1
  Ti  Ti49  1  0.875002  0.375024  0.823768  1
  Ti  Ti50  1  0.375004  0.875011  0.823832  1
  Ti  Ti51  1  0.875026  0.874967  0.823767  1
  Ti  Ti52  1  0.125025  0.124997  0.823800  1
  Ti  Ti53  1  0.625000  0.124976  0.823768  1
  Ti  Ti54  1  0.124996  0.624986  0.823832  1
  Ti  Ti55  1  0.624977  0.625031  0.823767  1
  Ti  Ti56  1  0.124977  0.374997  0.910117  1
  Ti  Ti57  1  0.625014  0.375016  0.910100  1
  Ti  Ti58  1  0.124988  0.874997  0.910138  1
  Ti  Ti59  1  0.625017  0.874985  0.910121  1
  Ti  Ti60  1  0.375025  0.125003  0.910117  1
  Ti  Ti61  1  0.874986  0.124985  0.910100  1
  Ti  Ti62  1  0.375013  0.625002  0.910138  1
  Ti  Ti63  1  0.874985  0.625014  0.910120  1
  Ti  Ti64  1  0.396511  0.373053  0.646670  1
  Ti  Ti65  1  0.884257  0.346697  0.653776  1
  Ti  Ti66  1  0.371502  0.870863  0.670633  1
  Ti  Ti67  1  0.888136  0.874223  0.661394  1
  Ti  Ti68  1  0.103489  0.126946  0.646670  1
  Ti  Ti69  1  0.615743  0.153302  0.653776  1
  Ti  Ti70  1  0.128497  0.629135  0.670633  1
  Ti  Ti71  1  0.611864  0.625776  0.661394  1
  Ti  Ti72  1  0.147440  0.384980  0.573536  1
  Ti  Ti73  1  0.658205  0.407002  0.566210  1
  Ti  Ti74  1  0.140264  0.872901  0.576360  1
  Ti  Ti75  1  0.581534  0.918245  0.577089  1
  Ti  Ti76  1  0.352560  0.115019  0.573536  1
  Ti  Ti77  1  0.841795  0.092998  0.566210  1
  Ti  Ti78  1  0.359736  0.627099  0.576360  1
  Ti  Ti79  1  0.918466  0.581755  0.577089  1
  Ti  Ti80  1  0.391244  0.370834  0.489425  1
  Ti  Ti81  1  0.899720  0.344662  0.489018  1
  Ti  Ti82  1  0.379613  0.858768  0.479902  1
  Ti  Ti83  1  0.926448  0.879735  0.474639  1
  Ti  Ti84  1  0.108756  0.129166  0.489425  1
  Ti  Ti85  1  0.600280  0.155338  0.489018  1
  Ti  Ti86  1  0.120387  0.641232  0.479902  1
  Ti  Ti87  1  0.573552  0.620265  0.474639  1
  Ti  Ti88  1  0.125101  0.875061  0.737561  1
  Ti  Ti89  1  0.624965  0.875117  0.737511  1
  Ti  Ti90  1  0.374895  0.624931  0.737563  1
  Ti  Ti91  1  0.875033  0.624877  0.737512  1
  Ti  Ti92  1  0.125034  0.374952  0.737502  1
  Ti  Ti93  1  0.624938  0.375263  0.737488  1
  Ti  Ti94  1  0.374965  0.125044  0.737502  1
  Ti  Ti95  1  0.875060  0.124733  0.737491  1
  Ti  Ti96  1  0.750000  0.750000  0.547199  1
