# generated using pymatgen
data_Ti96Sn
_symmetry_space_group_name_H-M   'P 1'
_cell_length_a   9.51302000
_cell_length_b   9.35086000
_cell_length_c   18.54723000
_cell_angle_alpha   90.00000000
_cell_angle_beta   90.00000000
_cell_angle_gamma   90.00000000
_symmetry_Int_Tables_number   1
_chemical_formula_structural   Ti96Sn
_chemical_formula_sum   'Ti96 Sn1'
_cell_volume   1649.86732743
_cell_formula_units_Z   1
loop_
 _symmetry_equiv_pos_site_id
 _symmetry_equiv_pos_as_xyz
  1  'x, y, z'
loop_
 _atom_site_type_symbol
 _atom_site_label
 _atom_site_symmetry_multiplicity
 _atom_site_fract_x
 _atom_site_fract_y
 _atom_site_fract_z
 _atom_site_occupancy
  Ti  Ti0  1  0.146905  0.377451  0.401944  1
  Ti  Ti1  1  0.650549  0.338866  0.399530  1
  Ti  Ti2  1  0.123102  0.857802  0.396049  1
  Ti  Ti3  1  0.681945  0.867432  0.396033  1
  Ti  Ti4  1  0.162050  0.369730  0.235554  1
  Ti  Ti5  1  0.657146  0.374512  0.234054  1
  Ti  Ti6  1  0.166663  0.874952  0.234567  1
  Ti  Ti7  1  0.654998  0.870793  0.235077  1
  Ti  Ti8  1  0.166636  0.375033  0.077642  1
  Ti  Ti9  1  0.666684  0.375006  0.077617  1
  Ti  Ti10  1  0.166639  0.874997  0.077641  1
  Ti  Ti11  1  0.666673  0.875000  0.077638  1
  Ti  Ti12  1  0.405587  0.388471  0.316283  1
  Ti  Ti13  1  0.900795  0.376741  0.319619  1
  Ti  Ti14  1  0.398488  0.891187  0.329905  1
  Ti  Ti15  1  0.911021  0.883843  0.306999  1
  Ti  Ti16  1  0.416650  0.375015  0.155273  1
  Ti  Ti17  1  0.916671  0.374969  0.155270  1
  Ti  Ti18  1  0.416661  0.875022  0.155303  1
  Ti  Ti19  1  0.916670  0.875002  0.155298  1
  Ti  Ti20  1  0.416667  0.375025  0.000022  1
  Ti  Ti21  1  0.916643  0.375012  0.000010  1
  Ti  Ti22  1  0.416670  0.874984  0.000035  1
  Ti  Ti23  1  0.916647  0.874992  0.000016  1
  Ti  Ti24  1  0.099205  0.123259  0.319618  1
  Ti  Ti25  1  0.594413  0.111529  0.316282  1
  Ti  Ti26  1  0.088979  0.616157  0.306998  1
  Ti  Ti27  1  0.601512  0.608813  0.329904  1
  Ti  Ti28  1  0.083329  0.125040  0.155270  1
  Ti  Ti29  1  0.583350  0.124994  0.155273  1
  Ti  Ti30  1  0.083330  0.625006  0.155298  1
  Ti  Ti31  1  0.583339  0.624986  0.155304  1
  Ti  Ti32  1  0.083358  0.124992  0.000010  1
  Ti  Ti33  1  0.583334  0.124979  0.000022  1
  Ti  Ti34  1  0.083353  0.625013  0.000016  1
  Ti  Ti35  1  0.583331  0.625019  0.000035  1
  Ti  Ti36  1  0.349450  0.161134  0.399530  1
  Ti  Ti37  1  0.853094  0.122549  0.401944  1
  Ti  Ti38  1  0.318054  0.632568  0.396033  1
  Ti  Ti39  1  0.876897  0.642198  0.396049  1
  Ti  Ti40  1  0.342853  0.125490  0.234054  1
  Ti  Ti41  1  0.837949  0.130271  0.235554  1
  Ti  Ti42  1  0.345001  0.629209  0.235077  1
  Ti  Ti43  1  0.833336  0.625049  0.234567  1
  Ti  Ti44  1  0.333315  0.125002  0.077617  1
  Ti  Ti45  1  0.833364  0.124975  0.077642  1
  Ti  Ti46  1  0.333326  0.625009  0.077639  1
  Ti  Ti47  1  0.833360  0.625012  0.077641  1
  Ti  Ti48  1  0.374993  0.375026  0.823872  1
  Ti  Ti49  1  0.874976  0.374954  0.823882  1
  Ti  Ti50  1  0.375045  0.874949  0.823809  1
  Ti  Ti51  1  0.875044  0.875023  0.823828  1
  Ti  Ti52  1  0.125028  0.125039  0.823881  1
  Ti  Ti53  1  0.625013  0.124977  0.823872  1
  Ti  Ti54  1  0.124958  0.624977  0.823829  1
  Ti  Ti55  1  0.624958  0.625045  0.823810  1
  Ti  Ti56  1  0.124985  0.375020  0.910153  1
  Ti  Ti57  1  0.624997  0.375011  0.910148  1
  Ti  Ti58  1  0.125014  0.874984  0.910133  1
  Ti  Ti59  1  0.624985  0.874989  0.910129  1
  Ti  Ti60  1  0.375007  0.124988  0.910147  1
  Ti  Ti61  1  0.875019  0.124979  0.910152  1
  Ti  Ti62  1  0.375019  0.625010  0.910128  1
  Ti  Ti63  1  0.874990  0.625015  0.910133  1
  Ti  Ti64  1  0.390425  0.379713  0.664895  1
  Ti  Ti65  1  0.883646  0.383728  0.645709  1
  Ti  Ti66  1  0.385322  0.892524  0.648895  1
  Ti  Ti67  1  0.889255  0.883032  0.667320  1
  Ti  Ti68  1  0.116353  0.116270  0.645708  1
  Ti  Ti69  1  0.609573  0.120284  0.664895  1
  Ti  Ti70  1  0.110743  0.616964  0.667320  1
  Ti  Ti71  1  0.614678  0.607473  0.648895  1
  Ti  Ti72  1  0.146033  0.371449  0.574321  1
  Ti  Ti73  1  0.631547  0.339256  0.571479  1
  Ti  Ti74  1  0.131472  0.851747  0.579184  1
  Ti  Ti75  1  0.669220  0.890629  0.581012  1
  Ti  Ti76  1  0.368453  0.160743  0.571479  1
  Ti  Ti77  1  0.853966  0.128550  0.574321  1
  Ti  Ti78  1  0.330779  0.609370  0.581012  1
  Ti  Ti79  1  0.868527  0.648252  0.579184  1
  Ti  Ti80  1  0.405225  0.408033  0.482236  1
  Ti  Ti81  1  0.895749  0.370059  0.488188  1
  Ti  Ti82  1  0.317742  0.941258  0.484489  1
  Ti  Ti83  1  0.909410  0.894861  0.490941  1
  Ti  Ti84  1  0.104250  0.129940  0.488188  1
  Ti  Ti85  1  0.594775  0.091966  0.482236  1
  Ti  Ti86  1  0.090590  0.605139  0.490941  1
  Ti  Ti87  1  0.682258  0.558742  0.484489  1
  Ti  Ti88  1  0.125310  0.875093  0.737659  1
  Ti  Ti89  1  0.625030  0.875021  0.737643  1
  Ti  Ti90  1  0.374963  0.624965  0.737643  1
  Ti  Ti91  1  0.874683  0.624891  0.737663  1
  Ti  Ti92  1  0.124836  0.374907  0.737651  1
  Ti  Ti93  1  0.625047  0.374867  0.737673  1
  Ti  Ti94  1  0.374947  0.125116  0.737672  1
  Ti  Ti95  1  0.875157  0.125078  0.737648  1
  Sn  Sn96  1  0.500000  0.750000  0.493695  1
