# generated using pymatgen
data_Ti96Al
_symmetry_space_group_name_H-M   'P 1'
_cell_length_a   9.51302000
_cell_length_b   9.35086000
_cell_length_c   18.54723000
_cell_angle_alpha   90.00000000
_cell_angle_beta   90.00000000
_cell_angle_gamma   90.00000000
_symmetry_Int_Tables_number   1
_chemical_formula_structural   Ti96Al
_chemical_formula_sum   'Ti96 Al1'
_cell_volume   1649.86732743
_cell_formula_units_Z   1
loop_
 _symmetry_equiv_pos_site_id
 _symmetry_equiv_pos_as_xyz
  1  'x, y, z'
loop_
 _atom_site_type_symbol
 _atom_site_label
 _atom_site_symmetry_multiplicity
 _atom_site_fract_x
 _atom_site_fract_y
 _atom_site_fract_z
 _atom_site_occupancy
  Ti  Ti0  1  0.133058  0.358385  0.404650  1
  Ti  Ti1  1  0.650496  0.366243  0.399086  1
  Ti  Ti2  1  0.174891  0.864592  0.398440  1
  Ti  Ti3  1  0.683014  0.922235  0.393105  1
  Ti  Ti4  1  0.160553  0.379099  0.237857  1
  Ti  Ti5  1  0.664567  0.374980  0.232531  1
  Ti  Ti6  1  0.163413  0.876153  0.235328  1
  Ti  Ti7  1  0.663701  0.873071  0.236883  1
  Ti  Ti8  1  0.166666  0.375000  0.077689  1
  Ti  Ti9  1  0.666666  0.375000  0.077689  1
  Ti  Ti10  1  0.166666  0.875000  0.077689  1
  Ti  Ti11  1  0.666666  0.875000  0.077689  1
  Ti  Ti12  1  0.407832  0.367303  0.309674  1
  Ti  Ti13  1  0.905554  0.374140  0.315488  1
  Ti  Ti14  1  0.415919  0.883141  0.315944  1
  Ti  Ti15  1  0.917863  0.876576  0.318681  1
  Ti  Ti16  1  0.416667  0.375000  0.155379  1
  Ti  Ti17  1  0.916667  0.375000  0.155379  1
  Ti  Ti18  1  0.416667  0.875000  0.155379  1
  Ti  Ti19  1  0.916667  0.875000  0.155379  1
  Ti  Ti20  1  0.416667  0.375000  0.000000  1
  Ti  Ti21  1  0.916667  0.375000  0.000000  1
  Ti  Ti22  1  0.416667  0.875000  0.000000  1
  Ti  Ti23  1  0.916667  0.875000  0.000000  1
  Ti  Ti24  1  0.094446  0.125860  0.315487  1
  Ti  Ti25  1  0.592168  0.132697  0.309673  1
  Ti  Ti26  1  0.082137  0.623424  0.318680  1
  Ti  Ti27  1  0.584081  0.616859  0.315943  1
  Ti  Ti28  1  0.083333  0.125000  0.155379  1
  Ti  Ti29  1  0.583333  0.125000  0.155379  1
  Ti  Ti30  1  0.083333  0.625000  0.155379  1
  Ti  Ti31  1  0.583333  0.625000  0.155379  1
  Ti  Ti32  1  0.083333  0.125000  0.000000  1
  Ti  Ti33  1  0.583333  0.125000  0.000000  1
  Ti  Ti34  1  0.083333  0.625000  0.000000  1
  Ti  Ti35  1  0.583333  0.625000  0.000000  1
  Ti  Ti36  1  0.349503  0.133757  0.399086  1
  Ti  Ti37  1  0.866941  0.141615  0.404650  1
  Ti  Ti38  1  0.316985  0.577765  0.393105  1
  Ti  Ti39  1  0.825108  0.635408  0.398440  1
  Ti  Ti40  1  0.335432  0.125020  0.232531  1
  Ti  Ti41  1  0.839446  0.120901  0.237857  1
  Ti  Ti42  1  0.336298  0.626929  0.236883  1
  Ti  Ti43  1  0.836586  0.623847  0.235328  1
  Ti  Ti44  1  0.333333  0.125000  0.077689  1
  Ti  Ti45  1  0.833333  0.125000  0.077689  1
  Ti  Ti46  1  0.333333  0.625000  0.077689  1
  Ti  Ti47  1  0.833333  0.625000  0.077689  1
  Ti  Ti48  1  0.375000  0.375000  0.823738  1
  Ti  Ti49  1  0.875000  0.375000  0.823738  1
  Ti  Ti50  1  0.375000  0.875000  0.823738  1
  Ti  Ti51  1  0.875000  0.875000  0.823738  1
  Ti  Ti52  1  0.125000  0.125000  0.823738  1
  Ti  Ti53  1  0.625000  0.125000  0.823738  1
  Ti  Ti54  1  0.125000  0.625000  0.823738  1
  Ti  Ti55  1  0.625000  0.625000  0.823738  1
  Ti  Ti56  1  0.125000  0.375000  0.910084  1
  Ti  Ti57  1  0.625000  0.375000  0.910084  1
  Ti  Ti58  1  0.125000  0.875000  0.910084  1
  Ti  Ti59  1  0.625000  0.875000  0.910084  1
  Ti  Ti60  1  0.375000  0.125000  0.910084  1
  Ti  Ti61  1  0.875000  0.125000  0.910084  1
  Ti  Ti62  1  0.375000  0.625000  0.910084  1
  Ti  Ti63  1  0.875000  0.625000  0.910084  1
  Ti  Ti64  1  0.392809  0.407415  0.649980  1
  Ti  Ti65  1  0.901992  0.374513  0.649050  1
  Ti  Ti66  1  0.384115  0.884173  0.654815  1
  Ti  Ti67  1  0.878086  0.882743  0.665338  1
  Ti  Ti68  1  0.098008  0.125487  0.649050  1
  Ti  Ti69  1  0.607191  0.092585  0.649980  1
  Ti  Ti70  1  0.121914  0.617257  0.665338  1
  Ti  Ti71  1  0.615885  0.615827  0.654815  1
  Ti  Ti72  1  0.151947  0.391454  0.565536  1
  Ti  Ti73  1  0.650730  0.340633  0.585456  1
  Ti  Ti74  1  0.122961  0.858671  0.581326  1
  Ti  Ti75  1  0.645900  0.850758  0.559544  1
  Ti  Ti76  1  0.349270  0.159367  0.585456  1
  Ti  Ti77  1  0.848053  0.108546  0.565536  1
  Ti  Ti78  1  0.354100  0.649242  0.559544  1
  Ti  Ti79  1  0.877039  0.641329  0.581326  1
  Ti  Ti80  1  0.405797  0.375080  0.490847  1
  Ti  Ti81  1  0.890919  0.373999  0.492885  1
  Ti  Ti82  1  0.358100  0.933973  0.505523  1
  Ti  Ti83  1  0.913921  0.874867  0.476466  1
  Ti  Ti84  1  0.109081  0.126001  0.492885  1
  Ti  Ti85  1  0.594203  0.124920  0.490847  1
  Ti  Ti86  1  0.086079  0.625133  0.476466  1
  Ti  Ti87  1  0.641900  0.566027  0.505523  1
  Ti  Ti88  1  0.125000  0.875000  0.737395  1
  Ti  Ti89  1  0.625000  0.875000  0.737395  1
  Ti  Ti90  1  0.375000  0.625000  0.737395  1
  Ti  Ti91  1  0.875000  0.625000  0.737395  1
  Ti  Ti92  1  0.125000  0.375000  0.737395  1
  Ti  Ti93  1  0.625000  0.375000  0.737395  1
  Ti  Ti94  1  0.375000  0.125000  0.737395  1
  Ti  Ti95  1  0.875000  0.125000  0.737395  1
  Al  Al96  1  0.500000  0.750000  0.437605  1
